496

C	3.3871	12.1911	5.4540
C	0.5063	0.5035	0.1979
C	4.6820	0.2364	5.5954
C	1.7805	12.4985	0.3943
C	5.4930	12.2361	6.6071
C	2.5753	0.5327	1.4358
C	2.5887	6.8006	5.4083
C	5.8266	6.0634	0.3590
C	2.9693	7.8046	6.3479
C	6.2522	4.9992	1.1655
C	2.9756	11.1813	6.3668
C	0.0286	1.5211	1.0408
C	5.0237	11.2182	7.4530
C	2.0270	1.5957	2.2268
C	0.8075	7.9864	7.1661
C	4.1468	4.7866	2.1392
C	0.3701	6.9505	6.3141
C	3.6434	5.8875	1.3689
C	1.2589	6.2953	5.4546
C	4.5128	6.5234	0.4422
C	5.1951	1.3240	4.7473
C	2.0610	11.3610	9.8835
C	0.7958	5.1021	4.7157
C	3.8010	7.6558	9.9156
C	9.6679	12.1126	5.4442
C	6.7886	0.4698	0.1159
C	10.9236	0.2247	5.6532
C	8.0543	12.4516	0.3301
C	11.7140	12.2502	6.6928
C	8.8472	0.4909	1.3706
C	8.7642	6.5924	5.4404
C	11.9087	5.7281	0.1656
C	9.1801	7.6552	6.2493
C	12.3279	4.7136	1.0780
C	9.2796	11.0484	6.3079
C	6.3174	1.5064	0.9393
C	11.2575	11.2003	7.5062
C	8.3079	1.5727	2.1423
C	7.2282	7.5628	7.5216
C	10.4054	4.9479	2.3582
C	6.7471	6.4527	6.7666
C	9.9348	5.9708	1.5239
C	7.5365	5.9785	5.6783
C	10.6856	6.3984	0.4280
C	11.4091	1.3558	4.8405
C	8.3288	11.2984	9.8376
C	7.0542	4.8825	4.8288
C	9.9897	7.5319	9.8944
C	2.3949	12.4221	4.5247
C	1.3484	12.3853	3.8786
C	3.7688	12.4425	1.7931
C	4.7450	11.7505	2.0693
C	3.6222	6.5310	4.5302
C	4.6711	6.5785	3.8891
C	2.3899	6.3919	1.6874
C	1.3152	6.8199	2.1012
C	8.6931	12.3595	4.5010
C	7.6554	12.3615	3.8381
C	10.0336	12.3963	1.7436
C	11.0164	11.7208	2.0377
C	5.5799	5.8149	7.1685
C	4.5905	5.2206	7.5857
C	0.0912	5.9462	9.4233
C	1.0791	5.9472	8.6889
H	5.9067	0.0770	9.6172
H	0.1810	0.1620	6.8985
H	4.0004	8.1431	6.3818
H	0.7694	4.2106	0.9214
H	1.9758	10.7646	6.2951
H	5.3242	1.9253	0.8088
H	5.6467	10.8058	8.2412
H	2.6325	2.0602	2.9995
H	0.1288	8.4775	7.8546
H	3.4996	4.2840	2.8522
H	12.1275	0.1145	9.6991
H	6.4962	0.0974	6.7584
H	9.4168	6.2456	4.6439
H	6.3170	6.5369	9.9719
H	10.1378	8.1478	6.1042
H	7.2761	4.6375	1.1418
H	8.3132	10.5689	6.1778
H	11.5369	1.9327	0.9226
H	11.8580	10.8272	8.3303
H	8.9093	2.0356	2.9195
H	6.6346	7.9691	8.3374
H	9.8333	4.6028	3.2134
H	11.8402	6.6311	6.3779
H	8.9849	6.4447	1.7539
H	0.4420	12.3498	3.3037
H	5.5322	11.0330	2.2170
H	5.5674	6.6596	3.3011
H	0.3791	7.2318	2.4328
H	6.7723	12.3249	3.2294
H	11.8188	11.0213	2.1905
H	3.7624	4.6121	7.9013
H	1.9963	5.9130	8.1310
N	3.7732	10.7181	7.3264
N	0.7676	2.0334	2.0532
N	2.1114	8.3602	7.2029
N	5.4214	4.3747	2.0357
N	10.0500	10.6207	7.3065
N	7.0546	2.0226	1.9505
N	8.4175	8.1270	7.2653
N	11.5999	4.3506	2.1372
Ni	2.9281	9.4848	8.5993
Ni	6.1851	3.1194	3.4053
Ni	9.1882	9.3993	8.5906
Ni	12.4101	3.1579	3.4966
O	1.5310	4.3889	3.9418
O	4.5225	8.2868	9.0582
O	4.5283	1.9385	3.8433
O	1.3616	10.7454	8.9969
O	5.8544	4.4221	4.9161
O	2.5911	8.0881	10.0059
O	0.0992	1.8327	4.9933
O	3.2496	10.8923	10.0259
O	7.7604	4.3342	3.9059
O	10.7088	8.1050	8.9960
O	10.7445	1.9361	3.9143
O	7.6323	10.6732	8.9547
O	12.0905	4.6816	4.8287
O	8.8171	8.0380	10.0490
O	6.4200	1.7325	4.8534
O	9.5138	10.8241	9.9939
C	3.1595	12.1911	15.7283
C	0.2787	0.5035	10.4722
C	4.4544	0.2364	15.8696
C	1.5529	12.4985	10.6686
C	5.2654	12.2361	16.8814
C	2.3477	0.5327	11.7101
C	2.3612	6.8006	15.6826
C	5.5990	6.0634	10.6333
C	2.7417	7.8046	16.6222
C	6.0246	4.9992	11.4398
C	2.7480	11.1813	16.6411
C	-0.1990	1.5211	11.3151
C	4.7962	11.2182	17.7273
C	1.7994	1.5957	12.5011
C	0.5799	7.9864	17.4404
C	3.9193	4.7866	12.4135
C	0.1425	6.9505	16.5884
C	3.4158	5.8875	11.6432
C	1.0314	6.2953	15.7289
C	4.2852	6.5234	10.7165
C	4.9675	1.3240	15.0216
C	1.8334	11.3610	20.1578
C	0.5682	5.1021	14.9900
C	3.5734	7.6558	20.1899
C	9.4403	12.1126	15.7185
C	6.5611	0.4698	10.3902
C	10.6960	0.2247	15.9275
C	7.8267	12.4516	10.6043
C	11.4864	12.2502	16.9671
C	8.6196	0.4909	11.6449
C	8.5366	6.5924	15.7147
C	11.6811	5.7281	10.4399
C	8.9526	7.6552	16.5236
C	12.1003	4.7136	11.3523
C	9.0520	11.0484	16.5822
C	6.0898	1.5064	11.2135
C	11.0300	11.2003	17.7805
C	8.0803	1.5727	12.4166
C	7.0007	7.5628	17.7959
C	10.1778	4.9479	12.6325
C	6.5195	6.4527	17.0409
C	9.7072	5.9708	11.7982
C	7.3089	5.9785	15.9526
C	10.4581	6.3984	10.7023
C	11.1815	1.3558	15.1148
C	8.1013	11.2984	20.1118
C	6.8266	4.8825	15.1031
C	9.7621	7.5319	20.1687
C	2.1673	12.4221	14.7990
C	1.1208	12.3853	14.1529
C	3.5412	12.4425	12.0674
C	4.5174	11.7505	12.3436
C	3.3946	6.5310	14.8045
C	4.4435	6.5785	14.1634
C	2.1623	6.3919	11.9617
C	1.0876	6.8199	12.3754
C	8.4655	12.3595	14.7753
C	7.4278	12.3615	14.1124
C	9.8060	12.3963	12.0179
C	10.7888	11.7208	12.3120
C	5.3523	5.8149	17.4427
C	4.3629	5.2206	17.8599
C	-0.1364	5.9462	19.6976
C	0.8515	5.9472	18.9632
H	5.6791	0.0770	19.8915
H	-0.0466	0.1620	17.1728
H	3.7729	8.1431	16.6561
H	0.5418	4.2106	11.1957
H	1.7482	10.7646	16.5694
H	5.0966	1.9253	11.0831
H	5.4191	10.8058	18.5155
H	2.4049	2.0602	13.2738
H	-0.0988	8.4775	18.1289
H	3.2720	4.2840	13.1265
H	11.8999	0.1145	19.9733
H	6.2686	0.0974	17.0327
H	9.1892	6.2456	14.9182
H	6.0894	6.5369	20.2462
H	9.9102	8.1478	16.3785
H	7.0485	4.6375	11.4161
H	8.0856	10.5689	16.4520
H	11.3094	1.9327	11.1969
H	11.6304	10.8272	18.6046
H	8.6817	2.0356	13.1938
H	6.4070	7.9691	18.6116
H	9.6057	4.6028	13.4877
H	11.6127	6.6311	16.6522
H	8.7573	6.4447	12.0281
H	0.2144	12.3498	13.5780
H	5.3046	11.0330	12.4913
H	5.3398	6.6596	13.5754
H	0.1515	7.2318	12.7071
H	6.5447	12.3249	13.5036
H	11.5912	11.0213	12.4648
H	3.5348	4.6121	18.1756
H	1.7687	5.9130	18.4053
N	3.5456	10.7181	17.6007
N	0.5400	2.0334	12.3275
N	1.8838	8.3602	17.4772
N	5.1939	4.3747	12.3100
N	9.8224	10.6207	17.5808
N	6.8270	2.0226	12.2248
N	8.1899	8.1270	17.5396
N	11.3723	4.3506	12.4115
Ni	2.7005	9.4848	18.8736
Ni	5.9575	3.1194	13.6796
Ni	8.9606	9.3993	18.8649
Ni	12.1825	3.1579	13.7709
O	1.3035	4.3889	14.2161
O	4.2949	8.2868	19.3325
O	4.3007	1.9385	14.1176
O	1.1340	10.7454	19.2711
O	5.6268	4.4221	15.1904
O	2.3635	8.0881	20.2802
O	-0.1284	1.8327	15.2676
O	3.0220	10.8923	20.3002
O	7.5328	4.3342	14.1802
O	10.4812	8.1050	19.2703
O	10.5169	1.9361	14.1886
O	7.4047	10.6732	19.2290
O	11.8629	4.6816	15.1029
O	8.5895	8.0380	20.3233
O	6.1924	1.7325	15.1277
O	9.2862	10.8241	20.2682
C	3.3871	24.7145	5.4540
C	0.5063	13.0269	0.1979
C	4.6820	12.7598	5.5954
C	1.7805	25.0219	0.3943
C	5.4930	24.7595	6.6071
C	2.5753	13.0561	1.4358
C	2.5887	19.3240	5.4083
C	5.8266	18.5868	0.3590
C	2.9693	20.3281	6.3479
C	6.2522	17.5226	1.1655
C	2.9756	23.7048	6.3668
C	0.0286	14.0445	1.0408
C	5.0237	23.7416	7.4530
C	2.0270	14.1191	2.2268
C	0.8075	20.5098	7.1661
C	4.1468	17.3100	2.1392
C	0.3701	19.4739	6.3141
C	3.6434	18.4109	1.3689
C	1.2589	18.8188	5.4546
C	4.5128	19.0468	0.4422
C	5.1951	13.8474	4.7473
C	2.0610	23.8844	9.8835
C	0.7958	17.6255	4.7157
C	3.8010	20.1792	9.9156
C	9.6679	24.6360	5.4442
C	6.7886	12.9932	0.1159
C	10.9236	12.7481	5.6532
C	8.0543	24.9750	0.3301
C	11.7140	24.7736	6.6928
C	8.8472	13.0143	1.3706
C	8.7642	19.1158	5.4404
C	11.9087	18.2515	0.1656
C	9.1801	20.1786	6.2493
C	12.3279	17.2370	1.0780
C	9.2796	23.5718	6.3079
C	6.3174	14.0298	0.9393
C	11.2575	23.7237	7.5062
C	8.3079	14.0961	2.1423
C	7.2282	20.0862	7.5216
C	10.4054	17.4713	2.3582
C	6.7471	18.9762	6.7666
C	9.9348	18.4942	1.5239
C	7.5365	18.5019	5.6783
C	10.6856	18.9218	0.4280
C	11.4091	13.8792	4.8405
C	8.3288	23.8218	9.8376
C	7.0542	17.4059	4.8288
C	9.9897	20.0553	9.8944
C	2.3949	24.9455	4.5247
C	1.3484	24.9087	3.8786
C	3.7688	24.9659	1.7931
C	4.7450	24.2739	2.0693
C	3.6222	19.0544	4.5302
C	4.6711	19.1019	3.8891
C	2.3899	18.9154	1.6874
C	1.3152	19.3433	2.1012
C	8.6931	24.8829	4.5010
C	7.6554	24.8849	3.8381
C	10.0336	24.9197	1.7436
C	11.0164	24.2443	2.0377
C	5.5799	18.3383	7.1685
C	4.5905	17.7441	7.5857
C	0.0912	18.4697	9.4233
C	1.0791	18.4707	8.6889
H	5.9067	12.6004	9.6172
H	0.1810	12.6854	6.8985
H	4.0004	20.6666	6.3818
H	0.7694	16.7340	0.9214
H	1.9758	23.2880	6.2951
H	5.3242	14.4487	0.8088
H	5.6467	23.3292	8.2412
H	2.6325	14.5836	2.9995
H	0.1288	21.0009	7.8546
H	3.4996	16.8075	2.8522
H	12.1275	12.6379	9.6991
H	6.4962	12.6208	6.7584
H	9.4168	18.7690	4.6439
H	6.3170	19.0603	9.9719
H	10.1378	20.6712	6.1042
H	7.2761	17.1609	1.1418
H	8.3132	23.0923	6.1778
H	11.5369	14.4561	0.9226
H	11.8580	23.3506	8.3303
H	8.9093	14.5590	2.9195
H	6.6346	20.4925	8.3374
H	9.8333	17.1262	3.2134
H	11.8402	19.1545	6.3779
H	8.9849	18.9681	1.7539
H	0.4420	24.8732	3.3037
H	5.5322	23.5564	2.2170
H	5.5674	19.1830	3.3011
H	0.3791	19.7553	2.4328
H	6.7723	24.8483	3.2294
H	11.8188	23.5447	2.1905
H	3.7624	17.1355	7.9013
H	1.9963	18.4364	8.1310
N	3.7732	23.2415	7.3264
N	0.7676	14.5569	2.0532
N	2.1114	20.8836	7.2029
N	5.4214	16.8981	2.0357
N	10.0500	23.1441	7.3065
N	7.0546	14.5460	1.9505
N	8.4175	20.6505	7.2653
N	11.5999	16.8740	2.1372
Ni	2.9281	22.0082	8.5993
Ni	6.1851	15.6428	3.4053
Ni	9.1882	21.9227	8.5906
Ni	12.4101	15.6813	3.4966
O	1.5310	16.9123	3.9418
O	4.5225	20.8102	9.0582
O	4.5283	14.4619	3.8433
O	1.3616	23.2688	8.9969
O	5.8544	16.9455	4.9161
O	2.5911	20.6115	10.0059
O	0.0992	14.3561	4.9933
O	3.2496	23.4157	10.0259
O	7.7604	16.8577	3.9059
O	10.7088	20.6284	8.9960
O	10.7445	14.4595	3.9143
O	7.6323	23.1966	8.9547
O	12.0905	17.2050	4.8287
O	8.8171	20.5614	10.0490
O	6.4200	14.2559	4.8534
O	9.5138	23.3475	9.9939
C	3.1595	24.7145	15.7283
C	0.2787	13.0269	10.4722
C	4.4544	12.7598	15.8696
C	1.5529	25.0219	10.6686
C	5.2654	24.7595	16.8814
C	2.3477	13.0561	11.7101
C	2.3612	19.3240	15.6826
C	5.5990	18.5868	10.6333
C	2.7417	20.3281	16.6222
C	6.0246	17.5226	11.4398
C	2.7480	23.7048	16.6411
C	-0.1990	14.0445	11.3151
C	4.7962	23.7416	17.7273
C	1.7994	14.1191	12.5011
C	0.5799	20.5098	17.4404
C	3.9193	17.3100	12.4135
C	0.1425	19.4739	16.5884
C	3.4158	18.4109	11.6432
C	1.0314	18.8188	15.7289
C	4.2852	19.0468	10.7165
C	4.9675	13.8474	15.0216
C	1.8334	23.8844	20.1578
C	0.5682	17.6255	14.9900
C	3.5734	20.1792	20.1899
C	9.4403	24.6360	15.7185
C	6.5611	12.9932	10.3902
C	10.6960	12.7481	15.9275
C	7.8267	24.9750	10.6043
C	11.4864	24.7736	16.9671
C	8.6196	13.0143	11.6449
C	8.5366	19.1158	15.7147
C	11.6811	18.2515	10.4399
C	8.9526	20.1786	16.5236
C	12.1003	17.2370	11.3523
C	9.0520	23.5718	16.5822
C	6.0898	14.0298	11.2135
C	11.0300	23.7237	17.7805
C	8.0803	14.0961	12.4166
C	7.0007	20.0862	17.7959
C	10.1778	17.4713	12.6325
C	6.5195	18.9762	17.0409
C	9.7072	18.4942	11.7982
C	7.3089	18.5019	15.9526
C	10.4581	18.9218	10.7023
C	11.1815	13.8792	15.1148
C	8.1013	23.8218	20.1118
C	6.8266	17.4059	15.1031
C	9.7621	20.0553	20.1687
C	2.1673	24.9455	14.7990
C	1.1208	24.9087	14.1529
C	3.5412	24.9659	12.0674
C	4.5174	24.2739	12.3436
C	3.3946	19.0544	14.8045
C	4.4435	19.1019	14.1634
C	2.1623	18.9154	11.9617
C	1.0876	19.3433	12.3754
C	8.4655	24.8829	14.7753
C	7.4278	24.8849	14.1124
C	9.8060	24.9197	12.0179
C	10.7888	24.2443	12.3120
C	5.3523	18.3383	17.4427
C	4.3629	17.7441	17.8599
C	-0.1364	18.4697	19.6976
C	0.8515	18.4707	18.9632
H	5.6791	12.6004	19.8915
H	-0.0466	12.6854	17.1728
H	3.7729	20.6666	16.6561
H	0.5418	16.7340	11.1957
H	1.7482	23.2880	16.5694
H	5.0966	14.4487	11.0831
H	5.4191	23.3292	18.5155
H	2.4049	14.5836	13.2738
H	-0.0988	21.0009	18.1289
H	3.2720	16.8075	13.1265
H	11.8999	12.6379	19.9733
H	6.2686	12.6208	17.0327
H	9.1892	18.7690	14.9182
H	6.0894	19.0603	20.2462
H	9.9102	20.6712	16.3785
H	7.0485	17.1609	11.4161
H	8.0856	23.0923	16.4520
H	11.3094	14.4561	11.1969
H	11.6304	23.3506	18.6046
H	8.6817	14.5590	13.1938
H	6.4070	20.4925	18.6116
H	9.6057	17.1262	13.4877
H	11.6127	19.1545	16.6522
H	8.7573	18.9681	12.0281
H	0.2144	24.8732	13.5780
H	5.3046	23.5564	12.4913
H	5.3398	19.1830	13.5754
H	0.1515	19.7553	12.7071
H	6.5447	24.8483	13.5036
H	11.5912	23.5447	12.4648
H	3.5348	17.1355	18.1756
H	1.7687	18.4364	18.4053
N	3.5456	23.2415	17.6007
N	0.5400	14.5569	12.3275
N	1.8838	20.8836	17.4772
N	5.1939	16.8981	12.3100
N	9.8224	23.1441	17.5808
N	6.8270	14.5460	12.2248
N	8.1899	20.6505	17.5396
N	11.3723	16.8740	12.4115
Ni	2.7005	22.0082	18.8736
Ni	5.9575	15.6428	13.6796
Ni	8.9606	21.9227	18.8649
Ni	12.1825	15.6813	13.7709
O	1.3035	16.9123	14.2161
O	4.2949	20.8102	19.3325
O	4.3007	14.4619	14.1176
O	1.1340	23.2688	19.2711
O	5.6268	16.9455	15.1904
O	2.3635	20.6115	20.2802
O	-0.1284	14.3561	15.2676
O	3.0220	23.4157	20.3002
O	7.5328	16.8577	14.1802
O	10.4812	20.6284	19.2703
O	10.5169	14.4595	14.1886
O	7.4047	23.1966	19.2290
O	11.8629	17.2050	15.1029
O	8.5895	20.5614	20.3233
O	6.1924	14.2559	15.1277
O	9.2862	23.3475	20.2682
