496

C	3.4470	12.2810	5.4117
C	0.4802	0.2628	0.3439
C	4.6823	0.3030	5.7489
C	1.7253	12.2552	0.6580
C	5.3646	12.3171	6.8636
C	2.4431	0.2915	1.7243
C	2.4251	6.5111	5.5036
C	5.4954	5.7443	0.2392
C	2.9117	7.5837	6.2867
C	6.0766	4.7685	1.0798
C	2.9157	11.2250	6.1918
C	12.4730	1.3435	1.1027
C	4.7729	11.2782	7.6055
C	1.8746	1.3659	2.4404
C	0.8973	7.6867	7.4628
C	4.2328	4.7895	2.4996
C	0.3457	6.6474	6.6981
C	3.4723	5.7286	1.6194
C	1.1335	6.0453	5.7120
C	4.3092	6.3657	0.5734
C	5.2856	1.3397	4.8970
C	2.0232	11.1748	10.0874
C	0.6398	4.9389	4.8844
C	3.5991	7.4959	10.0966
C	9.7889	12.2893	5.4079
C	6.7672	0.2764	0.2672
C	11.0460	0.2779	5.7022
C	8.0151	12.2704	0.5663
C	11.7603	12.2654	6.7798
C	8.7227	0.2505	1.6667
C	8.9282	6.5569	5.4239
C	11.9663	6.1432	0.4325
C	9.3497	7.6477	6.2087
C	12.4562	5.0797	1.2429
C	9.2577	11.2482	6.2056
C	6.2334	1.3052	1.0789
C	11.1779	11.2266	7.5324
C	8.1418	1.2847	2.4253
C	7.4284	7.5243	7.5200
C	10.4303	4.9489	2.3907
C	6.9428	6.4080	6.7799
C	9.9048	6.0378	1.6577
C	7.7004	5.9417	5.7041
C	10.6825	6.6249	0.6486
C	11.5901	1.3524	4.8635
C	8.3534	11.2422	9.9638
C	7.1567	4.8458	4.8763
C	9.9501	7.7121	10.0691
C	1.6991	10.6718	5.7936
C	0.6198	10.2989	5.3509
C	11.2148	1.7923	0.7087
C	10.1084	1.8937	0.1859
C	4.1966	8.0171	5.9618
C	5.3090	8.1436	5.4614
C	7.3612	4.3821	0.7143
C	8.4743	4.3599	0.1958
C	7.9790	10.8210	5.8547
C	6.8582	10.7076	5.3683
C	4.9723	1.7599	0.6956
C	3.8738	1.9055	0.1693
C	6.7306	8.0256	8.5831
C	5.8055	8.1894	9.5096
C	1.2562	4.7406	1.0705
C	2.5354	4.7543	0.8631
H	2.8728	0.1096	4.5602
H	5.9501	12.4470	9.7017
H	0.2307	0.1186	7.0640
H	3.4078	12.4311	2.0356
H	3.0822	6.0728	4.7584
H	-0.1032	6.5774	9.9651
H	5.2891	10.8552	8.4633
H	2.4129	1.8271	3.2642
H	0.3199	8.1648	8.2514
H	3.7267	4.3893	3.3781
H	6.0001	5.9446	7.0581
H	2.8551	6.4163	2.2056
H	9.1856	0.1482	4.5919
H	12.1518	12.3908	9.8095
H	6.3208	0.1932	7.1825
H	9.6828	12.3675	1.9649
H	9.5742	6.2027	4.6268
H	5.8397	5.9997	9.6292
H	10.3056	8.1387	6.0333
H	11.7092	10.7839	8.3710
H	8.6759	1.7250	3.2630
H	9.8263	4.4591	3.1506
H	11.8344	6.3242	6.8970
H	8.9173	6.4099	1.9075
H	12.2030	9.9198	4.9496
H	8.9476	2.0538	9.9542
H	6.2725	8.3197	5.0218
H	9.1996	4.2639	9.9846
H	5.9026	10.5488	4.9065
H	2.7110	2.0443	9.9343
H	6.2570	8.3758	0.2909
H	3.0525	4.0806	0.1742
N	3.5801	10.7434	7.3013
N	0.6683	1.8814	2.1573
N	2.1488	8.1467	7.2810
N	5.4322	4.3249	2.2234
N	9.9624	10.7270	7.2658
N	6.9309	1.7974	2.1584
N	8.6248	8.1374	7.2223
N	11.6605	4.4660	2.1980
Ni	2.7787	9.4765	8.5899
Ni	6.2382	3.0563	3.5029
Ni	9.1936	9.4715	8.5896
Ni	12.3993	3.1392	3.4894
O	1.3852	4.3636	3.9974
O	4.4795	8.0634	9.1534
O	4.6241	1.9445	3.9701
O	1.2865	10.6286	9.1734
O	5.9506	4.4316	5.0074
O	2.4741	8.0031	10.0772
O	0.2800	1.7922	4.9737
O	3.2191	10.7230	10.1485
O	7.8273	4.2501	3.9529
O	10.6867	8.2610	9.1650
O	10.8883	1.9206	3.9394
O	7.6663	10.7131	9.0054
O	11.9565	4.4797	4.9708
O	8.7549	8.1705	10.1525
O	6.5124	1.6945	4.9950
O	9.5519	10.8122	10.0750
C	3.2194	12.2810	15.6860
C	0.2526	0.2628	10.6182
C	4.4547	0.3030	16.0232
C	1.4977	12.2552	10.9323
C	5.1370	12.3171	17.1379
C	2.2155	0.2915	11.9986
C	2.1975	6.5111	15.7779
C	5.2679	5.7443	10.5135
C	2.6841	7.5837	16.5610
C	5.8490	4.7685	11.3541
C	2.6881	11.2250	16.4661
C	12.2455	1.3435	11.3770
C	4.5453	11.2782	17.8798
C	1.6470	1.3659	12.7147
C	0.6697	7.6867	17.7371
C	4.0052	4.7895	12.7739
C	0.1181	6.6474	16.9724
C	3.2447	5.7286	11.8937
C	0.9059	6.0453	15.9863
C	4.0816	6.3657	10.8477
C	5.0580	1.3397	15.1713
C	1.7956	11.1748	20.3616
C	0.4122	4.9389	15.1587
C	3.3715	7.4959	20.3709
C	9.5613	12.2893	15.6822
C	6.5396	0.2764	10.5415
C	10.8184	0.2779	15.9765
C	7.7875	12.2704	10.8405
C	11.5327	12.2654	17.0541
C	8.4951	0.2505	11.9410
C	8.7006	6.5569	15.6982
C	11.7387	6.1432	10.7068
C	9.1221	7.6477	16.4830
C	12.2286	5.0797	11.5171
C	9.0301	11.2482	16.4799
C	6.0058	1.3052	11.3532
C	10.9504	11.2266	17.8067
C	7.9142	1.2847	12.6996
C	7.2008	7.5243	17.7943
C	10.2027	4.9489	12.6650
C	6.7152	6.4080	17.0542
C	9.6773	6.0378	11.9319
C	7.4728	5.9417	15.9784
C	10.4549	6.6249	10.9229
C	11.3625	1.3524	15.1378
C	8.1258	11.2422	20.2381
C	6.9291	4.8458	15.1506
C	9.7225	7.7121	20.3433
C	1.4715	10.6718	16.0679
C	0.3922	10.2989	15.6252
C	10.9872	1.7923	10.9830
C	9.8808	1.8937	10.4602
C	3.9690	8.0171	16.2361
C	5.0814	8.1436	15.7356
C	7.1336	4.3821	10.9886
C	8.2467	4.3599	10.4701
C	7.7514	10.8210	16.1290
C	6.6306	10.7076	15.6426
C	4.7447	1.7599	10.9699
C	3.6462	1.9055	10.4436
C	6.5031	8.0256	18.8574
C	5.5779	8.1894	19.7839
C	1.0286	4.7406	11.3448
C	2.3078	4.7543	11.1374
H	2.6453	0.1096	14.8345
H	5.7225	12.4470	19.9760
H	0.0031	0.1186	17.3383
H	3.1802	12.4311	12.3099
H	2.8546	6.0728	15.0327
H	-0.3308	6.5774	20.2394
H	5.0615	10.8552	18.7376
H	2.1853	1.8271	13.5385
H	0.0923	8.1648	18.5257
H	3.4991	4.3893	13.6524
H	5.7725	5.9446	17.3324
H	2.6275	6.4163	12.4799
H	8.9580	0.1482	14.8662
H	11.9242	12.3908	20.0838
H	6.0932	0.1932	17.4568
H	9.4552	12.3675	12.2392
H	9.3467	6.2027	14.9010
H	5.6121	5.9997	19.9035
H	10.0780	8.1387	16.3076
H	11.4816	10.7839	18.6453
H	8.4483	1.7250	13.5373
H	9.5988	4.4591	13.4249
H	11.6068	6.3242	17.1713
H	8.6897	6.4099	12.1818
H	11.9754	9.9198	15.2239
H	8.7200	2.0538	20.2285
H	6.0450	8.3197	15.2961
H	8.9720	4.2639	20.2589
H	5.6750	10.5488	15.1808
H	2.4834	2.0443	20.2086
H	6.0294	8.3758	10.5652
H	2.8249	4.0806	10.4485
N	3.3525	10.7434	17.5756
N	0.4407	1.8814	12.4316
N	1.9213	8.1467	17.5553
N	5.2046	4.3249	12.4977
N	9.7348	10.7270	17.5400
N	6.7033	1.7974	12.4327
N	8.3972	8.1374	17.4966
N	11.4329	4.4660	12.4723
Ni	2.5511	9.4765	18.8641
Ni	6.0106	3.0563	13.7772
Ni	8.9660	9.4715	18.8639
Ni	12.1717	3.1392	13.7637
O	1.1576	4.3636	14.2717
O	4.2519	8.0634	19.4277
O	4.3966	1.9445	14.2443
O	1.0589	10.6286	19.4477
O	5.7231	4.4316	15.2817
O	2.2465	8.0031	20.3514
O	0.0524	1.7922	15.2480
O	2.9915	10.7230	20.4228
O	7.5997	4.2501	14.2272
O	10.4591	8.2610	19.4393
O	10.6607	1.9206	14.2136
O	7.4387	10.7131	19.2797
O	11.7289	4.4797	15.2450
O	8.5273	8.1705	20.4268
O	6.2848	1.6945	15.2693
O	9.3243	10.8122	20.3493
C	3.4470	24.8044	5.4117
C	0.4802	12.7862	0.3439
C	4.6823	12.8264	5.7489
C	1.7253	24.7786	0.6580
C	5.3646	24.8405	6.8636
C	2.4431	12.8149	1.7243
C	2.4251	19.0345	5.5036
C	5.4954	18.2677	0.2392
C	2.9117	20.1071	6.2867
C	6.0766	17.2919	1.0798
C	2.9157	23.7484	6.1918
C	12.4730	13.8670	1.1027
C	4.7729	23.8016	7.6055
C	1.8746	13.8893	2.4404
C	0.8973	20.2101	7.4628
C	4.2328	17.3129	2.4996
C	0.3457	19.1708	6.6981
C	3.4723	18.2520	1.6194
C	1.1335	18.5688	5.7120
C	4.3092	18.8891	0.5734
C	5.2856	13.8631	4.8970
C	2.0232	23.6982	10.0874
C	0.6398	17.4623	4.8844
C	3.5991	20.0193	10.0966
C	9.7889	24.8127	5.4079
C	6.7672	12.7998	0.2672
C	11.0460	12.8013	5.7022
C	8.0151	24.7938	0.5663
C	11.7603	24.7888	6.7798
C	8.7227	12.7739	1.6667
C	8.9282	19.0803	5.4239
C	11.9663	18.6666	0.4325
C	9.3497	20.1711	6.2087
C	12.4562	17.6031	1.2429
C	9.2577	23.7716	6.2056
C	6.2334	13.8286	1.0789
C	11.1779	23.7500	7.5324
C	8.1418	13.8082	2.4253
C	7.4284	20.0477	7.5200
C	10.4303	17.4723	2.3907
C	6.9428	18.9314	6.7799
C	9.9048	18.5612	1.6577
C	7.7004	18.4651	5.7041
C	10.6825	19.1484	0.6486
C	11.5901	13.8758	4.8635
C	8.3534	23.7656	9.9638
C	7.1567	17.3692	4.8763
C	9.9501	20.2355	10.0691
C	1.6991	23.1952	5.7936
C	0.6198	22.8223	5.3509
C	11.2148	14.3157	0.7087
C	10.1084	14.4171	0.1859
C	4.1966	20.5405	5.9618
C	5.3090	20.6671	5.4614
C	7.3612	16.9055	0.7143
C	8.4743	16.8833	0.1958
C	7.9790	23.3445	5.8547
C	6.8582	23.2310	5.3683
C	4.9723	14.2833	0.6956
C	3.8738	14.4290	0.1693
C	6.7306	20.5490	8.5831
C	5.8055	20.7128	9.5096
C	1.2562	17.2640	1.0705
C	2.5354	17.2777	0.8631
H	2.8728	12.6331	4.5602
H	5.9501	24.9704	9.7017
H	0.2307	12.6420	7.0640
H	3.4078	24.9545	2.0356
H	3.0822	18.5962	4.7584
H	-0.1032	19.1008	9.9651
H	5.2891	23.3786	8.4633
H	2.4129	14.3505	3.2642
H	0.3199	20.6882	8.2514
H	3.7267	16.9127	3.3781
H	6.0001	18.4680	7.0581
H	2.8551	18.9397	2.2056
H	9.1856	12.6716	4.5919
H	12.1518	24.9142	9.8095
H	6.3208	12.7167	7.1825
H	9.6828	24.8909	1.9649
H	9.5742	18.7261	4.6268
H	5.8397	18.5231	9.6292
H	10.3056	20.6621	6.0333
H	11.7092	23.3074	8.3710
H	8.6759	14.2484	3.2630
H	9.8263	16.9825	3.1506
H	11.8344	18.8476	6.8970
H	8.9173	18.9333	1.9075
H	12.2030	22.4432	4.9496
H	8.9476	14.5772	9.9542
H	6.2725	20.8432	5.0218
H	9.1996	16.7873	9.9846
H	5.9026	23.0722	4.9065
H	2.7110	14.5677	9.9343
H	6.2570	20.8992	0.2909
H	3.0525	16.6041	0.1742
N	3.5801	23.2668	7.3013
N	0.6683	14.4049	2.1573
N	2.1488	20.6701	7.2810
N	5.4322	16.8483	2.2234
N	9.9624	23.2504	7.2658
N	6.9309	14.3208	2.1584
N	8.6248	20.6608	7.2223
N	11.6605	16.9894	2.1980
Ni	2.7787	21.9999	8.5899
Ni	6.2382	15.5797	3.5029
Ni	9.1936	21.9950	8.5896
Ni	12.3993	15.6626	3.4894
O	1.3852	16.8870	3.9974
O	4.4795	20.5868	9.1534
O	4.6241	14.4679	3.9701
O	1.2865	23.1520	9.1734
O	5.9506	16.9550	5.0074
O	2.4741	20.5265	10.0772
O	0.2800	14.3156	4.9737
O	3.2191	23.2464	10.1485
O	7.8273	16.7735	3.9529
O	10.6867	20.7844	9.1650
O	10.8883	14.4441	3.9394
O	7.6663	23.2365	9.0054
O	11.9565	17.0031	4.9708
O	8.7549	20.6939	10.1525
O	6.5124	14.2179	4.9950
O	9.5519	23.3356	10.0750
C	3.2194	24.8044	15.6860
C	0.2526	12.7862	10.6182
C	4.4547	12.8264	16.0232
C	1.4977	24.7786	10.9323
C	5.1370	24.8405	17.1379
C	2.2155	12.8149	11.9986
C	2.1975	19.0345	15.7779
C	5.2679	18.2677	10.5135
C	2.6841	20.1071	16.5610
C	5.8490	17.2919	11.3541
C	2.6881	23.7484	16.4661
C	12.2455	13.8670	11.3770
C	4.5453	23.8016	17.8798
C	1.6470	13.8893	12.7147
C	0.6697	20.2101	17.7371
C	4.0052	17.3129	12.7739
C	0.1181	19.1708	16.9724
C	3.2447	18.2520	11.8937
C	0.9059	18.5688	15.9863
C	4.0816	18.8891	10.8477
C	5.0580	13.8631	15.1713
C	1.7956	23.6982	20.3616
C	0.4122	17.4623	15.1587
C	3.3715	20.0193	20.3709
C	9.5613	24.8127	15.6822
C	6.5396	12.7998	10.5415
C	10.8184	12.8013	15.9765
C	7.7875	24.7938	10.8405
C	11.5327	24.7888	17.0541
C	8.4951	12.7739	11.9410
C	8.7006	19.0803	15.6982
C	11.7387	18.6666	10.7068
C	9.1221	20.1711	16.4830
C	12.2286	17.6031	11.5171
C	9.0301	23.7716	16.4799
C	6.0058	13.8286	11.3532
C	10.9504	23.7500	17.8067
C	7.9142	13.8082	12.6996
C	7.2008	20.0477	17.7943
C	10.2027	17.4723	12.6650
C	6.7152	18.9314	17.0542
C	9.6773	18.5612	11.9319
C	7.4728	18.4651	15.9784
C	10.4549	19.1484	10.9229
C	11.3625	13.8758	15.1378
C	8.1258	23.7656	20.2381
C	6.9291	17.3692	15.1506
C	9.7225	20.2355	20.3433
C	1.4715	23.1952	16.0679
C	0.3922	22.8223	15.6252
C	10.9872	14.3157	10.9830
C	9.8808	14.4171	10.4602
C	3.9690	20.5405	16.2361
C	5.0814	20.6671	15.7356
C	7.1336	16.9055	10.9886
C	8.2467	16.8833	10.4701
C	7.7514	23.3445	16.1290
C	6.6306	23.2310	15.6426
C	4.7447	14.2833	10.9699
C	3.6462	14.4290	10.4436
C	6.5031	20.5490	18.8574
C	5.5779	20.7128	19.7839
C	1.0286	17.2640	11.3448
C	2.3078	17.2777	11.1374
H	2.6453	12.6331	14.8345
H	5.7225	24.9704	19.9760
H	0.0031	12.6420	17.3383
H	3.1802	24.9545	12.3099
H	2.8546	18.5962	15.0327
H	-0.3308	19.1008	20.2394
H	5.0615	23.3786	18.7376
H	2.1853	14.3505	13.5385
H	0.0923	20.6882	18.5257
H	3.4991	16.9127	13.6524
H	5.7725	18.4680	17.3324
H	2.6275	18.9397	12.4799
H	8.9580	12.6716	14.8662
H	11.9242	24.9142	20.0838
H	6.0932	12.7167	17.4568
H	9.4552	24.8909	12.2392
H	9.3467	18.7261	14.9010
H	5.6121	18.5231	19.9035
H	10.0780	20.6621	16.3076
H	11.4816	23.3074	18.6453
H	8.4483	14.2484	13.5373
H	9.5988	16.9825	13.4249
H	11.6068	18.8476	17.1713
H	8.6897	18.9333	12.1818
H	11.9754	22.4432	15.2239
H	8.7200	14.5772	20.2285
H	6.0450	20.8432	15.2961
H	8.9720	16.7873	20.2589
H	5.6750	23.0722	15.1808
H	2.4834	14.5677	20.2086
H	6.0294	20.8992	10.5652
H	2.8249	16.6041	10.4485
N	3.3525	23.2668	17.5756
N	0.4407	14.4049	12.4316
N	1.9213	20.6701	17.5553
N	5.2046	16.8483	12.4977
N	9.7348	23.2504	17.5400
N	6.7033	14.3208	12.4327
N	8.3972	20.6608	17.4966
N	11.4329	16.9894	12.4723
Ni	2.5511	21.9999	18.8641
Ni	6.0106	15.5797	13.7772
Ni	8.9660	21.9950	18.8639
Ni	12.1717	15.6626	13.7637
O	1.1576	16.8870	14.2717
O	4.2519	20.5868	19.4277
O	4.3966	14.4679	14.2443
O	1.0589	23.1520	19.4477
O	5.7231	16.9550	15.2817
O	2.2465	20.5265	20.3514
O	0.0524	14.3156	15.2480
O	2.9915	23.2464	20.4228
O	7.5997	16.7735	14.2272
O	10.4591	20.7844	19.4393
O	10.6607	14.4441	14.2136
O	7.4387	23.2365	19.2797
O	11.7289	17.0031	15.2450
O	8.5273	20.6939	20.4268
O	6.2848	14.2179	15.2693
O	9.3243	23.3356	20.3493
