216

Ni	2.9028	9.4421	8.6245
O	1.4194	4.3784	4.0368
O	0.3079	1.5003	4.8721
N	3.7677	10.5560	7.1530
N	2.0951	8.0914	7.3471
C	3.5585	12.0137	5.2748
H	3.0266	12.3506	4.5628
C	4.8383	12.4984	5.4834
C	5.5898	11.9548	6.5283
C	2.4254	6.5009	5.5902
H	2.9870	6.1490	4.9091
C	2.8617	7.5541	6.3875
H	3.7328	7.9060	6.2457
C	3.0629	11.0319	6.1132
H	2.1949	10.6825	5.9498
C	5.0180	10.9918	7.3328
H	5.5326	10.6236	8.0407
C	0.8614	7.5704	7.5475
H	0.3136	7.9473	8.2266
C	0.3657	6.5159	6.8077
C	1.1715	5.9737	5.8009
C	0.6533	4.8365	4.9471
O	4.4320	8.1450	9.1739
O	1.3958	10.8568	8.9407
O	2.5049	8.1123	10.2465
O	3.3205	11.0231	10.0092
N	0.7551	1.9674	2.0158
C	0.5459	0.5097	0.1377
C	1.8257	0.0250	0.3462
C	2.5772	0.5686	1.3911
H	3.4686	0.2780	1.5463
H	5.9996	6.3744	10.0462
H	0.7202	4.6174	1.1086
C	0.0503	1.4915	0.9761
C	2.0054	1.5316	2.1956
H	2.5200	1.8998	2.9035
C	2.1462	11.4051	9.8119
C	3.6659	7.6869	10.0842
O	4.4084	1.6666	14.0778
O	5.5175	4.4111	15.3837
H	0.0008	12.2454	16.9577
H	5.5242	6.1678	17.2515
C	5.1588	1.1183	14.9491
Ni	5.9154	3.0813	13.7617
N	5.1077	4.4320	12.4843
H	-0.4412	0.1728	19.9742
C	5.4380	6.0225	10.7274
C	5.8743	4.9693	11.5247
H	5.2075	1.8409	11.0870
C	3.8740	4.9530	12.6846
H	3.3262	4.5761	13.3638
C	3.3783	6.0075	11.9449
H	2.5116	6.3556	12.1144
C	4.1841	6.5497	10.9380
O	4.6360	14.1900	3.8035
O	5.7451	16.9345	5.1094
H	0.2284	24.7688	6.6834
H	5.7518	18.6912	6.9773
C	5.3864	13.6417	4.6748
Ni	6.1430	15.6047	3.4874
N	5.3353	16.9554	2.2100
H	-0.2136	12.6962	9.6999
C	5.6656	18.5459	0.4531
C	6.1019	17.4927	1.2504
H	5.4351	14.3643	0.8127
C	4.1016	17.4764	2.4103
H	3.5538	17.0995	3.0895
C	3.6059	18.5309	1.6706
H	2.7392	18.8790	1.8401
C	4.4117	19.0731	0.6637
Ni	2.6752	21.9655	18.8988
O	1.1918	16.9018	14.3110
O	0.0803	14.0237	15.1463
N	3.5401	23.0794	17.4272
N	1.8675	20.6148	17.6214
C	3.3310	24.5371	15.5491
H	2.7990	24.8740	14.8371
C	4.6107	25.0218	15.7577
C	5.3622	24.4782	16.8026
C	2.1978	19.0243	15.8645
H	2.7594	18.6724	15.1833
C	2.6341	20.0775	16.6618
H	3.5052	20.4294	16.5200
C	2.8353	23.5553	16.3875
H	1.9673	23.2059	16.2241
C	4.7904	23.5152	17.6070
H	5.3050	23.1470	18.3149
C	0.6338	20.0938	17.8218
H	0.0860	20.4707	18.5009
C	0.1381	19.0393	17.0820
C	0.9439	18.4971	16.0751
C	0.4257	17.3599	15.2213
O	4.2044	20.6684	19.4482
O	1.1682	23.3802	19.2150
O	2.2773	20.6357	20.5208
O	3.0929	23.5465	20.2835
N	0.5275	14.4908	12.2901
C	0.3184	13.0331	10.4120
C	1.5981	12.5484	10.6205
C	2.3496	13.0920	11.6654
H	3.2410	12.8014	11.8206
H	5.7720	18.8978	20.3205
H	0.4926	17.1408	11.3829
C	-0.1773	14.0149	11.2503
C	1.7778	14.0550	12.4699
H	2.2924	14.4232	13.1778
C	1.9186	23.9285	20.0862
C	3.4383	20.2103	20.3585
O	10.8888	1.6666	3.8035
O	11.9979	4.4111	5.1094
H	6.4812	12.2454	6.6834
H	12.0046	6.1678	6.9773
C	11.6392	1.1183	4.6748
Ni	12.3958	3.0813	3.4874
N	11.5881	4.4320	2.2100
H	6.0392	0.1728	9.6999
C	11.9184	6.0225	0.4531
C	12.3547	4.9693	1.2504
H	11.6879	1.8409	0.8127
C	10.3544	4.9530	2.4103
H	9.8066	4.5761	3.0895
C	9.8587	6.0075	1.6706
H	8.9920	6.3556	1.8401
C	10.6645	6.5497	0.6637
Ni	8.9280	9.4421	18.8988
O	7.4446	4.3784	14.3110
O	6.3331	1.5003	15.1463
N	9.7929	10.5560	17.4272
N	8.1203	8.0914	17.6214
C	9.5838	12.0137	15.5491
H	9.0518	12.3506	14.8371
C	10.8635	12.4984	15.7577
C	11.6150	11.9548	16.8026
C	8.4506	6.5009	15.8645
H	9.0122	6.1490	15.1833
C	8.8869	7.5541	16.6618
H	9.7580	7.9060	16.5200
C	9.0881	11.0319	16.3875
H	8.2201	10.6825	16.2241
C	11.0432	10.9918	17.6070
H	11.5578	10.6236	18.3149
C	6.8866	7.5704	17.8218
H	6.3388	7.9473	18.5009
C	6.3909	6.5159	17.0820
C	7.1967	5.9737	16.0751
C	6.6785	4.8365	15.2213
O	10.4572	8.1450	19.4482
O	7.4210	10.8568	19.2150
O	8.5301	8.1123	20.5208
O	9.3457	11.0231	20.2835
N	6.7803	1.9674	12.2901
C	6.5712	0.5097	10.4120
C	7.8509	0.0250	10.6205
C	8.6024	0.5686	11.6654
H	9.4938	0.2780	11.8206
H	12.0248	6.3744	20.3205
H	6.7454	4.6174	11.3829
C	6.0755	1.4915	11.2503
C	8.0306	1.5316	12.4699
H	8.5452	1.8998	13.1778
C	8.1714	11.4051	20.0862
C	9.6911	7.6869	20.3585
Ni	9.1556	21.9655	8.6245
O	7.6722	16.9018	4.0368
O	6.5607	14.0237	4.8721
N	10.0205	23.0794	7.1530
N	8.3479	20.6148	7.3471
C	9.8113	24.5371	5.2748
H	9.2794	24.8740	4.5628
C	11.0911	25.0218	5.4834
C	11.8426	24.4782	6.5283
C	8.6782	19.0243	5.5902
H	9.2398	18.6724	4.9091
C	9.1145	20.0775	6.3875
H	9.9856	20.4294	6.2457
C	9.3157	23.5553	6.1132
H	8.4477	23.2059	5.9498
C	11.2708	23.5152	7.3328
H	11.7854	23.1470	8.0407
C	7.1142	20.0938	7.5475
H	6.5664	20.4707	8.2266
C	6.6185	19.0393	6.8077
C	7.4243	18.4971	5.8009
C	6.9061	17.3599	4.9471
O	10.6848	20.6684	9.1739
O	7.6486	23.3802	8.9407
O	8.7577	20.6357	10.2465
O	9.5733	23.5465	10.0092
N	7.0079	14.4908	2.0158
C	6.7987	13.0331	0.1377
C	8.0785	12.5484	0.3462
C	8.8300	13.0920	1.3911
H	9.7214	12.8014	1.5463
H	12.2524	18.8978	10.0462
H	6.9730	17.1408	1.1086
C	6.3031	14.0149	0.9761
C	8.2582	14.0550	2.1956
H	8.7728	14.4232	2.9035
C	8.3990	23.9285	9.8119
C	9.9187	20.2103	10.0842
O	10.6612	14.1900	14.0778
O	11.7703	16.9345	15.3837
H	6.2536	24.7688	16.9577
H	11.7770	18.6912	17.2515
C	11.4116	13.6417	14.9491
Ni	12.1682	15.6047	13.7617
N	11.3605	16.9554	12.4843
H	5.8116	12.6962	19.9742
C	11.6908	18.5459	10.7274
C	12.1271	17.4927	11.5247
H	11.4603	14.3643	11.0870
C	10.1268	17.4764	12.6846
H	9.5790	17.0995	13.3638
C	9.6311	18.5309	11.9449
H	8.7644	18.8790	12.1144
C	10.4369	19.0731	10.9380
