27

Ni	2.9028	9.4421	8.6245
O	1.4194	4.3784	4.0368
N	3.7677	10.5560	7.1530
N	2.0951	8.0914	7.3471
C	3.5585	12.0137	5.2748
H	3.0266	12.3506	4.5628
C	4.8383	12.4984	5.4834
C	5.5898	11.9548	6.5283
C	2.4254	6.5009	5.5902
H	2.9870	6.1490	4.9091
C	2.8617	7.5541	6.3875
H	3.7328	7.9060	6.2457
C	3.0629	11.0319	6.1132
H	2.1949	10.6825	5.9498
C	5.0180	10.9918	7.3328
H	5.5326	10.6236	8.0407
C	0.8614	7.5704	7.5475
H	0.3136	7.9473	8.2266
C	0.3657	6.5159	6.8077
C	1.1715	5.9737	5.8009
C	0.6533	4.8365	4.9471
O	4.6360	14.1900	3.8035
C	5.3864	13.6417	4.6748
O	11.9979	4.4111	5.1094
H	6.4812	12.2454	6.6834
H	12.0046	6.1678	6.9773
O	6.5607	14.0237	4.8721
