27

O	1.3958	10.8568	8.9407
O	3.3205	11.0231	10.0092
C	2.1462	11.4051	9.8119
H	-0.2136	12.6962	9.6999
N	0.5275	14.4908	12.2901
C	0.3184	13.0331	10.4120
C	1.5981	12.5484	10.6205
C	2.3496	13.0920	11.6654
H	3.2410	12.8014	11.8206
H	0.4926	17.1408	11.3829
C	-0.1773	14.0149	11.2503
C	1.7778	14.0550	12.4699
H	2.2924	14.4232	13.1778
O	10.6848	20.6684	9.1739
O	8.7577	20.6357	10.2465
H	12.2524	18.8978	10.0462
C	9.9187	20.2103	10.0842
Ni	12.1682	15.6047	13.7617
N	11.3605	16.9554	12.4843
C	11.6908	18.5459	10.7274
C	12.1271	17.4927	11.5247
H	11.4603	14.3643	11.0870
C	10.1268	17.4764	12.6846
H	9.5790	17.0995	13.3638
C	9.6311	18.5309	11.9449
H	8.7644	18.8790	12.1144
C	10.4369	19.0731	10.9380
