27

O	0.3079	1.5003	4.8721
O	5.7451	16.9345	5.1094
H	0.2284	24.7688	6.6834
H	5.7518	18.6912	6.9773
O	10.8888	1.6666	3.8035
C	11.6392	1.1183	4.6748
Ni	9.1556	21.9655	8.6245
O	7.6722	16.9018	4.0368
N	10.0205	23.0794	7.1530
N	8.3479	20.6148	7.3471
C	9.8113	24.5371	5.2748
H	9.2794	24.8740	4.5628
C	11.0911	25.0218	5.4834
C	11.8426	24.4782	6.5283
C	8.6782	19.0243	5.5902
H	9.2398	18.6724	4.9091
C	9.1145	20.0775	6.3875
H	9.9856	20.4294	6.2457
C	9.3157	23.5553	6.1132
H	8.4477	23.2059	5.9498
C	11.2708	23.5152	7.3328
H	11.7854	23.1470	8.0407
C	7.1142	20.0938	7.5475
H	6.5664	20.4707	8.2266
C	6.6185	19.0393	6.8077
C	7.4243	18.4971	5.8009
C	6.9061	17.3599	4.9471
