27

O	4.4320	8.1450	9.1739
O	2.5049	8.1123	10.2465
H	5.9996	6.3744	10.0462
C	3.6659	7.6869	10.0842
Ni	5.9154	3.0813	13.7617
N	5.1077	4.4320	12.4843
C	5.4380	6.0225	10.7274
C	5.8743	4.9693	11.5247
H	5.2075	1.8409	11.0870
C	3.8740	4.9530	12.6846
H	3.3262	4.5761	13.3638
C	3.3783	6.0075	11.9449
H	2.5116	6.3556	12.1144
C	4.1841	6.5497	10.9380
H	6.0392	0.1728	9.6999
N	6.7803	1.9674	12.2901
C	6.5712	0.5097	10.4120
C	7.8509	0.0250	10.6205
C	8.6024	0.5686	11.6654
H	9.4938	0.2780	11.8206
H	6.7454	4.6174	11.3829
C	6.0755	1.4915	11.2503
C	8.0306	1.5316	12.4699
H	8.5452	1.8998	13.1778
O	7.6486	23.3802	8.9407
O	9.5733	23.5465	10.0092
C	8.3990	23.9285	9.8119
