27

Ni	2.6752	9.4421	18.8988
O	1.1918	4.3784	14.3110
N	3.5401	10.5560	17.4272
N	1.8675	8.0914	17.6214
C	3.3310	12.0137	15.5491
H	2.7990	12.3506	14.8371
C	4.6107	12.4984	15.7577
C	5.3622	11.9548	16.8026
C	2.1978	6.5009	15.8645
H	2.7594	6.1490	15.1833
C	2.6341	7.5541	16.6618
H	3.5052	7.9060	16.5200
C	2.8353	11.0319	16.3875
H	1.9673	10.6825	16.2241
C	4.7904	10.9918	17.6070
H	5.3050	10.6236	18.3149
C	0.6338	7.5704	17.8218
H	0.0860	7.9473	18.5009
C	0.1381	6.5159	17.0820
C	0.9439	5.9737	16.0751
C	0.4257	4.8365	15.2213
O	4.4084	14.1900	14.0778
C	5.1588	13.6417	14.9491
O	11.7703	4.4111	15.3837
H	6.2536	12.2454	16.9577
H	11.7770	6.1678	17.2515
O	6.3331	14.0237	15.1463
