992

C	3.3925	12.2428	5.5190
C	0.3234	0.1670	0.3845
C	4.7856	0.0527	5.5469
C	1.6715	12.3388	0.4452
C	5.5872	11.8230	6.3976
C	2.4966	0.5408	1.3574
C	2.5860	6.6457	5.4819
C	5.7636	5.8147	0.2426
C	2.9657	7.7099	6.3449
C	6.1911	4.7502	1.0880
C	2.9000	11.2108	6.3717
C	12.3253	1.1902	1.1979
C	5.0220	10.8318	7.2115
C	1.9247	1.6290	2.0730
C	0.9180	7.6322	7.4439
C	4.1002	4.6170	2.0681
C	0.4755	6.5860	6.6239
C	3.6081	5.6750	1.2960
C	1.2925	6.0593	5.6274
C	4.4351	6.3244	0.3858
C	5.3321	1.1752	4.7688
C	1.9981	11.2472	9.9172
C	0.8387	4.9450	4.7866
C	3.7317	7.4958	9.9134
C	9.6750	12.2415	5.3836
C	6.8247	0.5075	0.1802
C	10.9090	0.3121	5.6393
C	8.0728	12.3946	0.4569
C	11.6556	12.3158	6.7446
C	8.7804	0.3267	1.5649
C	8.8541	6.3661	5.6713
C	12.0860	6.0673	0.3312
C	9.3121	7.4471	6.4834
C	0.0379	5.0068	1.1232
C	9.2165	11.1812	6.1757
C	6.3712	1.5429	1.0395
C	11.1291	11.2200	7.4897
C	8.2477	1.3285	2.3881
C	7.1388	7.9487	7.1173
C	10.4708	4.7591	2.1369
C	6.6103	6.9147	6.3366
C	9.9514	5.8827	1.4334
C	7.4470	6.1077	5.5744
C	10.7794	6.5339	0.4655
C	11.4500	1.3873	4.7977
C	8.3541	11.2928	9.9066
C	6.9309	4.9973	4.7610
C	10.0408	7.6396	9.9242
H	0.0420	6.5379	9.9098
H	3.9472	8.1747	6.2465
H	1.0548	4.6321	1.0513
H	1.8432	10.9469	6.3613
H	5.4304	2.0495	0.8275
H	5.6207	10.2642	7.9162
H	2.5524	2.2582	2.7020
H	0.2915	8.0446	8.2306
H	3.4716	4.0907	2.7798
H	5.5406	6.7214	6.3805
H	2.5882	6.0163	1.4462
H	9.0470	0.0668	4.5698
H	11.9042	12.1427	10.0302
H	6.6500	12.0336	6.4805
H	9.7382	12.4077	1.8228
H	10.3769	7.6626	6.5704
H	7.2048	4.3587	1.0026
H	8.2629	10.6961	5.9877
H	11.2707	1.4518	1.2077
H	11.7033	10.8016	8.3169
H	8.7825	1.6860	3.2626
H	6.5001	8.5764	7.7297
H	9.8245	4.1801	2.7945
H	11.9985	6.1639	6.8163
H	1.5234	0.3387	4.8267
H	2.9400	1.1818	4.2293
H	4.2663	0.7112	2.3625
H	4.1403	11.9207	1.1083
H	4.4195	6.5176	4.5583
H	3.1800	5.3911	4.0206
H	7.3697	6.0623	9.6058
H	6.0671	7.1488	9.0981
H	0.8082	12.3351	7.9188
H	0.7054	1.0958	6.6458
H	4.9144	0.5596	9.2754
H	6.1556	11.8867	8.8503
H	10.7547	5.5693	5.1812
H	9.3240	4.7727	4.5620
H	8.1941	5.7889	2.4706
H	8.3479	7.1032	1.2282
N	3.6933	10.5633	7.2293
N	0.6208	1.8992	2.0369
N	2.1576	8.1660	7.3020
N	5.3922	4.2101	2.0135
N	9.9363	10.6953	7.2205
N	7.0458	1.9042	2.1329
N	8.4707	8.1992	7.1986
N	11.7430	4.3808	2.0248
N	2.5427	0.3896	4.7474
N	3.7697	0.2262	1.5967
N	3.4473	6.2162	4.5674
N	6.3886	6.3335	9.6356
N	0.3183	0.2925	7.1541
N	5.8359	0.1527	9.4227
N	9.7275	5.5681	5.0732
N	8.7167	6.2887	1.7386
Ni	2.8993	9.3904	8.6647
Ni	6.1698	3.0676	3.4915
Ni	9.1957	9.4596	8.5797
Ni	-0.0735	3.1406	3.4102
O	1.5733	4.3397	3.9196
O	4.4722	8.1370	9.0656
O	4.6380	1.7693	3.8295
O	1.3265	10.6777	8.9755
O	5.7420	4.5456	4.8723
O	2.5452	7.9607	10.0587
O	0.1831	1.7540	4.8989
O	3.1993	10.8027	10.0802
O	7.6701	4.3959	3.8691
O	10.7583	8.2656	9.0612
O	10.7758	2.0129	3.9067
O	7.6415	10.7191	8.9893
O	12.1355	4.5126	4.8729
O	8.8139	8.0401	10.0074
O	6.4966	1.6552	4.9561
O	9.5384	10.8258	10.0459
C	3.1649	12.2428	15.7933
C	0.0958	0.1670	10.6588
C	4.5580	0.0527	15.8212
C	1.4439	12.3388	10.7195
C	5.3596	11.8230	16.6719
C	2.2690	0.5408	11.6317
C	2.3584	6.6457	15.7562
C	5.5360	5.8147	10.5169
C	2.7381	7.7099	16.6192
C	5.9635	4.7502	11.3623
C	2.6724	11.2108	16.6459
C	12.0977	1.1902	11.4722
C	4.7944	10.8318	17.4858
C	1.6971	1.6290	12.3473
C	0.6904	7.6322	17.7182
C	3.8726	4.6170	12.3424
C	0.2479	6.5860	16.8982
C	3.3805	5.6750	11.5703
C	1.0649	6.0593	15.9017
C	4.2075	6.3244	10.6601
C	5.1045	1.1752	15.0431
C	1.7706	11.2472	20.1915
C	0.6111	4.9450	15.0609
C	3.5041	7.4958	20.1877
C	9.4474	12.2415	15.6579
C	6.5971	0.5075	10.4545
C	10.6814	0.3121	15.9136
C	7.8452	12.3946	10.7312
C	11.4281	12.3158	17.0189
C	8.5528	0.3267	11.8392
C	8.6265	6.3661	15.9455
C	11.8584	6.0673	10.6055
C	9.0845	7.4471	16.7577
C	-0.1897	5.0068	11.3975
C	8.9889	11.1812	16.4499
C	6.1436	1.5429	11.3138
C	10.9015	11.2200	17.7640
C	8.0202	1.3285	12.6624
C	6.9112	7.9487	17.3916
C	10.2432	4.7591	12.4111
C	6.3827	6.9147	16.6109
C	9.7238	5.8827	11.7077
C	7.2194	6.1077	15.8487
C	10.5518	6.5339	10.7397
C	11.2224	1.3873	15.0719
C	8.1265	11.2928	20.1809
C	6.7033	4.9973	15.0353
C	9.8132	7.6396	20.1985
H	-0.1856	6.5379	20.1841
H	3.7196	8.1747	16.5207
H	0.8273	4.6321	11.3255
H	1.6156	10.9469	16.6356
H	5.2028	2.0495	11.1018
H	5.3931	10.2642	18.1905
H	2.3248	2.2582	12.9763
H	0.0639	8.0446	18.5049
H	3.2440	4.0907	13.0541
H	5.3130	6.7214	16.6548
H	2.3606	6.0163	11.7205
H	8.8194	0.0668	14.8441
H	11.6766	12.1427	20.3045
H	6.4224	12.0336	16.7548
H	9.5106	12.4077	12.0970
H	10.1494	7.6626	16.8447
H	6.9772	4.3587	11.2769
H	8.0353	10.6961	16.2620
H	11.0431	1.4518	11.4820
H	11.4757	10.8016	18.5911
H	8.5549	1.6860	13.5369
H	6.2725	8.5764	18.0040
H	9.5969	4.1801	13.0688
H	11.7709	6.1639	17.0905
H	1.2958	0.3387	15.1010
H	2.7125	1.1818	14.5036
H	4.0387	0.7112	12.6368
H	3.9127	11.9207	11.3826
H	4.1920	6.5176	14.8326
H	2.9524	5.3911	14.2949
H	7.1421	6.0623	19.8801
H	5.8395	7.1488	19.3723
H	0.5807	12.3351	18.1931
H	0.4778	1.0958	16.9201
H	4.6868	0.5596	19.5497
H	5.9281	11.8867	19.1246
H	10.5271	5.5693	15.4555
H	9.0964	4.7727	14.8363
H	7.9665	5.7889	12.7449
H	8.1203	7.1032	11.5025
N	3.4657	10.5633	17.5036
N	0.3932	1.8992	12.3112
N	1.9300	8.1660	17.5762
N	5.1646	4.2101	12.2878
N	9.7087	10.6953	17.4948
N	6.8182	1.9042	12.4072
N	8.2431	8.1992	17.4729
N	11.5154	4.3808	12.2991
N	2.3151	0.3896	15.0217
N	3.5421	0.2262	11.8710
N	3.2197	6.2162	14.8417
N	6.1611	6.3335	19.9098
N	0.0907	0.2925	17.4284
N	5.6083	0.1527	19.6970
N	9.4999	5.5681	15.3475
N	8.4891	6.2887	12.0129
Ni	2.6717	9.3904	18.9390
Ni	5.9422	3.0676	13.7658
Ni	8.9681	9.4596	18.8540
Ni	-0.3011	3.1406	13.6845
O	1.3457	4.3397	14.1939
O	4.2446	8.1370	19.3399
O	4.4104	1.7693	14.1038
O	1.0989	10.6777	19.2498
O	5.5144	4.5456	15.1466
O	2.3176	7.9607	20.3330
O	-0.0445	1.7540	15.1732
O	2.9717	10.8027	20.3545
O	7.4425	4.3959	14.1434
O	10.5307	8.2656	19.3355
O	10.5482	2.0129	14.1810
O	7.4139	10.7191	19.2636
O	11.9079	4.5126	15.1472
O	8.5863	8.0401	20.2817
O	6.2690	1.6552	15.2304
O	9.3108	10.8258	20.3202
C	3.3925	24.7662	5.5190
C	0.3234	12.6904	0.3845
C	4.7856	12.5762	5.5469
C	1.6715	24.8622	0.4452
C	5.5872	24.3464	6.3976
C	2.4966	13.0642	1.3574
C	2.5860	19.1691	5.4819
C	5.7636	18.3381	0.2426
C	2.9657	20.2333	6.3449
C	6.1911	17.2736	1.0880
C	2.9000	23.7342	6.3717
C	12.3253	13.7136	1.1979
C	5.0220	23.3552	7.2115
C	1.9247	14.1525	2.0730
C	0.9180	20.1556	7.4439
C	4.1002	17.1404	2.0681
C	0.4755	19.1094	6.6239
C	3.6081	18.1984	1.2960
C	1.2925	18.5827	5.6274
C	4.4351	18.8478	0.3858
C	5.3321	13.6986	4.7688
C	1.9981	23.7706	9.9172
C	0.8387	17.4684	4.7866
C	3.7317	20.0192	9.9134
C	9.6750	24.7649	5.3836
C	6.8247	13.0309	0.1802
C	10.9090	12.8356	5.6393
C	8.0728	24.9180	0.4569
C	11.6556	24.8392	6.7446
C	8.7804	12.8502	1.5649
C	8.8541	18.8895	5.6713
C	12.0860	18.5908	0.3312
C	9.3121	19.9705	6.4834
C	0.0379	17.5302	1.1232
C	9.2165	23.7046	6.1757
C	6.3712	14.0663	1.0395
C	11.1291	23.7434	7.4897
C	8.2477	13.8519	2.3881
C	7.1388	20.4721	7.1173
C	10.4708	17.2825	2.1369
C	6.6103	19.4381	6.3366
C	9.9514	18.4061	1.4334
C	7.4470	18.6311	5.5744
C	10.7794	19.0573	0.4655
C	11.4500	13.9107	4.7977
C	8.3541	23.8162	9.9066
C	6.9309	17.5207	4.7610
C	10.0408	20.1630	9.9242
H	0.0420	19.0613	9.9098
H	3.9472	20.6981	6.2465
H	1.0548	17.1556	1.0513
H	1.8432	23.4703	6.3613
H	5.4304	14.5729	0.8275
H	5.6207	22.7876	7.9162
H	2.5524	14.7816	2.7020
H	0.2915	20.5680	8.2306
H	3.4716	16.6141	2.7798
H	5.5406	19.2448	6.3805
H	2.5882	18.5397	1.4462
H	9.0470	12.5903	4.5698
H	11.9042	24.6661	10.0302
H	6.6500	24.5570	6.4805
H	9.7382	24.9312	1.8228
H	10.3769	20.1860	6.5704
H	7.2048	16.8822	1.0026
H	8.2629	23.2195	5.9877
H	11.2707	13.9752	1.2077
H	11.7033	23.3250	8.3169
H	8.7825	14.2094	3.2626
H	6.5001	21.0998	7.7297
H	9.8245	16.7036	2.7945
H	11.9985	18.6873	6.8163
H	1.5234	12.8621	4.8267
H	2.9400	13.7052	4.2293
H	4.2663	13.2346	2.3625
H	4.1403	24.4442	1.1083
H	4.4195	19.0410	4.5583
H	3.1800	17.9146	4.0206
H	7.3697	18.5857	9.6058
H	6.0671	19.6722	9.0981
H	0.8082	24.8585	7.9188
H	0.7054	13.6193	6.6458
H	4.9144	13.0830	9.2754
H	6.1556	24.4101	8.8503
H	10.7547	18.0927	5.1812
H	9.3240	17.2962	4.5620
H	8.1941	18.3123	2.4706
H	8.3479	19.6266	1.2282
N	3.6933	23.0867	7.2293
N	0.6208	14.4226	2.0369
N	2.1576	20.6894	7.3020
N	5.3922	16.7335	2.0135
N	9.9363	23.2188	7.2205
N	7.0458	14.4276	2.1329
N	8.4707	20.7226	7.1986
N	11.7430	16.9042	2.0248
N	2.5427	12.9131	4.7474
N	3.7697	12.7496	1.5967
N	3.4473	18.7396	4.5674
N	6.3886	18.8569	9.6356
N	0.3183	12.8159	7.1541
N	5.8359	12.6762	9.4227
N	9.7275	18.0915	5.0732
N	8.7167	18.8121	1.7386
Ni	2.8993	21.9138	8.6647
Ni	6.1698	15.5910	3.4915
Ni	9.1957	21.9830	8.5797
Ni	-0.0735	15.6640	3.4102
O	1.5733	16.8631	3.9196
O	4.4722	20.6604	9.0656
O	4.6380	14.2927	3.8295
O	1.3265	23.2011	8.9755
O	5.7420	17.0690	4.8723
O	2.5452	20.4841	10.0587
O	0.1831	14.2774	4.8989
O	3.1993	23.3261	10.0802
O	7.6701	16.9193	3.8691
O	10.7583	20.7890	9.0612
O	10.7758	14.5364	3.9067
O	7.6415	23.2425	8.9893
O	12.1355	17.0360	4.8729
O	8.8139	20.5635	10.0074
O	6.4966	14.1786	4.9561
O	9.5384	23.3492	10.0459
C	3.1649	24.7662	15.7933
C	0.0958	12.6904	10.6588
C	4.5580	12.5762	15.8212
C	1.4439	24.8622	10.7195
C	5.3596	24.3464	16.6719
C	2.2690	13.0642	11.6317
C	2.3584	19.1691	15.7562
C	5.5360	18.3381	10.5169
C	2.7381	20.2333	16.6192
C	5.9635	17.2736	11.3623
C	2.6724	23.7342	16.6459
C	12.0977	13.7136	11.4722
C	4.7944	23.3552	17.4858
C	1.6971	14.1525	12.3473
C	0.6904	20.1556	17.7182
C	3.8726	17.1404	12.3424
C	0.2479	19.1094	16.8982
C	3.3805	18.1984	11.5703
C	1.0649	18.5827	15.9017
C	4.2075	18.8478	10.6601
C	5.1045	13.6986	15.0431
C	1.7706	23.7706	20.1915
C	0.6111	17.4684	15.0609
C	3.5041	20.0192	20.1877
C	9.4474	24.7649	15.6579
C	6.5971	13.0309	10.4545
C	10.6814	12.8356	15.9136
C	7.8452	24.9180	10.7312
C	11.4281	24.8392	17.0189
C	8.5528	12.8502	11.8392
C	8.6265	18.8895	15.9455
C	11.8584	18.5908	10.6055
C	9.0845	19.9705	16.7577
C	-0.1897	17.5302	11.3975
C	8.9889	23.7046	16.4499
C	6.1436	14.0663	11.3138
C	10.9015	23.7434	17.7640
C	8.0202	13.8519	12.6624
C	6.9112	20.4721	17.3916
C	10.2432	17.2825	12.4111
C	6.3827	19.4381	16.6109
C	9.7238	18.4061	11.7077
C	7.2194	18.6311	15.8487
C	10.5518	19.0573	10.7397
C	11.2224	13.9107	15.0719
C	8.1265	23.8162	20.1809
C	6.7033	17.5207	15.0353
C	9.8132	20.1630	20.1985
H	-0.1856	19.0613	20.1841
H	3.7196	20.6981	16.5207
H	0.8273	17.1556	11.3255
H	1.6156	23.4703	16.6356
H	5.2028	14.5729	11.1018
H	5.3931	22.7876	18.1905
H	2.3248	14.7816	12.9763
H	0.0639	20.5680	18.5049
H	3.2440	16.6141	13.0541
H	5.3130	19.2448	16.6548
H	2.3606	18.5397	11.7205
H	8.8194	12.5903	14.8441
H	11.6766	24.6661	20.3045
H	6.4224	24.5570	16.7548
H	9.5106	24.9312	12.0970
H	10.1494	20.1860	16.8447
H	6.9772	16.8822	11.2769
H	8.0353	23.2195	16.2620
H	11.0431	13.9752	11.4820
H	11.4757	23.3250	18.5911
H	8.5549	14.2094	13.5369
H	6.2725	21.0998	18.0040
H	9.5969	16.7036	13.0688
H	11.7709	18.6873	17.0905
H	1.2958	12.8621	15.1010
H	2.7125	13.7052	14.5036
H	4.0387	13.2346	12.6368
H	3.9127	24.4442	11.3826
H	4.1920	19.0410	14.8326
H	2.9524	17.9146	14.2949
H	7.1421	18.5857	19.8801
H	5.8395	19.6722	19.3723
H	0.5807	24.8585	18.1931
H	0.4778	13.6193	16.9201
H	4.6868	13.0830	19.5497
H	5.9281	24.4101	19.1246
H	10.5271	18.0927	15.4555
H	9.0964	17.2962	14.8363
H	7.9665	18.3123	12.7449
H	8.1203	19.6266	11.5025
N	3.4657	23.0867	17.5036
N	0.3932	14.4226	12.3112
N	1.9300	20.6894	17.5762
N	5.1646	16.7335	12.2878
N	9.7087	23.2188	17.4948
N	6.8182	14.4276	12.4072
N	8.2431	20.7226	17.4729
N	11.5154	16.9042	12.2991
N	2.3151	12.9131	15.0217
N	3.5421	12.7496	11.8710
N	3.2197	18.7396	14.8417
N	6.1611	18.8569	19.9098
N	0.0907	12.8159	17.4284
N	5.6083	12.6762	19.6970
N	9.4999	18.0915	15.3475
N	8.4891	18.8121	12.0129
Ni	2.6717	21.9138	18.9390
Ni	5.9422	15.5910	13.7658
Ni	8.9681	21.9830	18.8540
Ni	-0.3011	15.6640	13.6845
O	1.3457	16.8631	14.1939
O	4.2446	20.6604	19.3399
O	4.4104	14.2927	14.1038
O	1.0989	23.2011	19.2498
O	5.5144	17.0690	15.1466
O	2.3176	20.4841	20.3330
O	-0.0445	14.2774	15.1732
O	2.9717	23.3261	20.3545
O	7.4425	16.9193	14.1434
O	10.5307	20.7890	19.3355
O	10.5482	14.5364	14.1810
O	7.4139	23.2425	19.2636
O	11.9079	17.0360	15.1472
O	8.5863	20.5635	20.2817
O	6.2690	14.1786	15.2304
O	9.3108	23.3492	20.3202
C	15.8981	12.2428	5.5190
C	12.8290	0.1670	0.3845
C	17.2912	0.0527	5.5469
C	14.1771	12.3388	0.4452
C	18.0928	11.8230	6.3976
C	15.0022	0.5408	1.3574
C	15.0916	6.6457	5.4819
C	18.2692	5.8147	0.2426
C	15.4713	7.7099	6.3449
C	18.6967	4.7502	1.0880
C	15.4056	11.2108	6.3717
C	24.8309	1.1902	1.1979
C	17.5276	10.8318	7.2115
C	14.4303	1.6290	2.0730
C	13.4236	7.6322	7.4439
C	16.6058	4.6170	2.0681
C	12.9811	6.5860	6.6239
C	16.1137	5.6750	1.2960
C	13.7981	6.0593	5.6274
C	16.9407	6.3244	0.3858
C	17.8377	1.1752	4.7688
C	14.5038	11.2472	9.9172
C	13.3443	4.9450	4.7866
C	16.2373	7.4958	9.9134
C	22.1806	12.2415	5.3836
C	19.3303	0.5075	0.1802
C	23.4146	0.3121	5.6393
C	20.5784	12.3946	0.4569
C	24.1613	12.3158	6.7446
C	21.2860	0.3267	1.5649
C	21.3597	6.3661	5.6713
C	24.5916	6.0673	0.3312
C	21.8177	7.4471	6.4834
C	12.5435	5.0068	1.1232
C	21.7221	11.1812	6.1757
C	18.8768	1.5429	1.0395
C	23.6347	11.2200	7.4897
C	20.7534	1.3285	2.3881
C	19.6444	7.9487	7.1173
C	22.9764	4.7591	2.1369
C	19.1159	6.9147	6.3366
C	22.4570	5.8827	1.4334
C	19.9526	6.1077	5.5744
C	23.2851	6.5339	0.4655
C	23.9556	1.3873	4.7977
C	20.8597	11.2928	9.9066
C	19.4365	4.9973	4.7610
C	22.5464	7.6396	9.9242
H	12.5476	6.5379	9.9098
H	16.4528	8.1747	6.2465
H	13.5605	4.6321	1.0513
H	14.3488	10.9469	6.3613
H	17.9360	2.0495	0.8275
H	18.1263	10.2642	7.9162
H	15.0580	2.2582	2.7020
H	12.7971	8.0446	8.2306
H	15.9772	4.0907	2.7798
H	18.0462	6.7214	6.3805
H	15.0938	6.0163	1.4462
H	21.5526	0.0668	4.5698
H	24.4098	12.1427	10.0302
H	19.1556	12.0336	6.4805
H	22.2438	12.4077	1.8228
H	22.8826	7.6626	6.5704
H	19.7104	4.3587	1.0026
H	20.7685	10.6961	5.9877
H	23.7763	1.4518	1.2077
H	24.2090	10.8016	8.3169
H	21.2881	1.6860	3.2626
H	19.0057	8.5764	7.7297
H	22.3301	4.1801	2.7945
H	24.5041	6.1639	6.8163
H	14.0290	0.3387	4.8267
H	15.4457	1.1818	4.2293
H	16.7719	0.7112	2.3625
H	16.6459	11.9207	1.1083
H	16.9252	6.5176	4.5583
H	15.6856	5.3911	4.0206
H	19.8753	6.0623	9.6058
H	18.5727	7.1488	9.0981
H	13.3139	12.3351	7.9188
H	13.2110	1.0958	6.6458
H	17.4200	0.5596	9.2754
H	18.6613	11.8867	8.8503
H	23.2603	5.5693	5.1812
H	21.8296	4.7727	4.5620
H	20.6997	5.7889	2.4706
H	20.8535	7.1032	1.2282
N	16.1989	10.5633	7.2293
N	13.1264	1.8992	2.0369
N	14.6632	8.1660	7.3020
N	17.8978	4.2101	2.0135
N	22.4419	10.6953	7.2205
N	19.5514	1.9042	2.1329
N	20.9763	8.1992	7.1986
N	24.2486	4.3808	2.0248
N	15.0483	0.3896	4.7474
N	16.2753	0.2262	1.5967
N	15.9529	6.2162	4.5674
N	18.8943	6.3335	9.6356
N	12.8239	0.2925	7.1541
N	18.3415	0.1527	9.4227
N	22.2331	5.5681	5.0732
N	21.2223	6.2887	1.7386
Ni	15.4049	9.3904	8.6647
Ni	18.6754	3.0676	3.4915
Ni	21.7013	9.4596	8.5797
Ni	12.4321	3.1406	3.4102
O	14.0789	4.3397	3.9196
O	16.9778	8.1370	9.0656
O	17.1436	1.7693	3.8295
O	13.8321	10.6777	8.9755
O	18.2476	4.5456	4.8723
O	15.0508	7.9607	10.0587
O	12.6887	1.7540	4.8989
O	15.7049	10.8027	10.0802
O	20.1757	4.3959	3.8691
O	23.2639	8.2656	9.0612
O	23.2814	2.0129	3.9067
O	20.1471	10.7191	8.9893
O	24.6411	4.5126	4.8729
O	21.3195	8.0401	10.0074
O	19.0022	1.6552	4.9561
O	22.0440	10.8258	10.0459
C	15.6705	12.2428	15.7933
C	12.6014	0.1670	10.6588
C	17.0636	0.0527	15.8212
C	13.9495	12.3388	10.7195
C	17.8652	11.8230	16.6719
C	14.7747	0.5408	11.6317
C	14.8640	6.6457	15.7562
C	18.0416	5.8147	10.5169
C	15.2437	7.7099	16.6192
C	18.4691	4.7502	11.3623
C	15.1781	11.2108	16.6459
C	24.6033	1.1902	11.4722
C	17.3000	10.8318	17.4858
C	14.2027	1.6290	12.3473
C	13.1960	7.6322	17.7182
C	16.3783	4.6170	12.3424
C	12.7535	6.5860	16.8982
C	15.8862	5.6750	11.5703
C	13.5705	6.0593	15.9017
C	16.7132	6.3244	10.6601
C	17.6101	1.1752	15.0431
C	14.2762	11.2472	20.1915
C	13.1167	4.9450	15.0609
C	16.0098	7.4958	20.1877
C	21.9530	12.2415	15.6579
C	19.1027	0.5075	10.4545
C	23.1870	0.3121	15.9136
C	20.3508	12.3946	10.7312
C	23.9337	12.3158	17.0189
C	21.0584	0.3267	11.8392
C	21.1321	6.3661	15.9455
C	24.3640	6.0673	10.6055
C	21.5901	7.4471	16.7577
C	12.3159	5.0068	11.3975
C	21.4945	11.1812	16.4499
C	18.6492	1.5429	11.3138
C	23.4071	11.2200	17.7640
C	20.5258	1.3285	12.6624
C	19.4168	7.9487	17.3916
C	22.7488	4.7591	12.4111
C	18.8884	6.9147	16.6109
C	22.2294	5.8827	11.7077
C	19.7250	6.1077	15.8487
C	23.0575	6.5339	10.7397
C	23.7280	1.3873	15.0719
C	20.6321	11.2928	20.1809
C	19.2089	4.9973	15.0353
C	22.3188	7.6396	20.1985
H	12.3200	6.5379	20.1841
H	16.2252	8.1747	16.5207
H	13.3329	4.6321	11.3255
H	14.1212	10.9469	16.6356
H	17.7084	2.0495	11.1018
H	17.8988	10.2642	18.1905
H	14.8304	2.2582	12.9763
H	12.5695	8.0446	18.5049
H	15.7496	4.0907	13.0541
H	17.8186	6.7214	16.6548
H	14.8662	6.0163	11.7205
H	21.3251	0.0668	14.8441
H	24.1823	12.1427	20.3045
H	18.9280	12.0336	16.7548
H	22.0162	12.4077	12.0970
H	22.6550	7.6626	16.8447
H	19.4828	4.3587	11.2769
H	20.5410	10.6961	16.2620
H	23.5487	1.4518	11.4820
H	23.9814	10.8016	18.5911
H	21.0605	1.6860	13.5369
H	18.7781	8.5764	18.0040
H	22.1025	4.1801	13.0688
H	24.2765	6.1639	17.0905
H	13.8014	0.3387	15.1010
H	15.2181	1.1818	14.5036
H	16.5443	0.7112	12.6368
H	16.4183	11.9207	11.3826
H	16.6976	6.5176	14.8326
H	15.4580	5.3911	14.2949
H	19.6477	6.0623	19.8801
H	18.3451	7.1488	19.3723
H	13.0863	12.3351	18.1931
H	12.9834	1.0958	16.9201
H	17.1924	0.5596	19.5497
H	18.4337	11.8867	19.1246
H	23.0327	5.5693	15.4555
H	21.6020	4.7727	14.8363
H	20.4721	5.7889	12.7449
H	20.6259	7.1032	11.5025
N	15.9714	10.5633	17.5036
N	12.8988	1.8992	12.3112
N	14.4356	8.1660	17.5762
N	17.6703	4.2101	12.2878
N	22.2143	10.6953	17.4948
N	19.3238	1.9042	12.4072
N	20.7487	8.1992	17.4729
N	24.0210	4.3808	12.2991
N	14.8207	0.3896	15.0217
N	16.0477	0.2262	11.8710
N	15.7253	6.2162	14.8417
N	18.6667	6.3335	19.9098
N	12.5964	0.2925	17.4284
N	18.1139	0.1527	19.6970
N	22.0055	5.5681	15.3475
N	20.9947	6.2887	12.0129
Ni	15.1773	9.3904	18.9390
Ni	18.4478	3.0676	13.7658
Ni	21.4738	9.4596	18.8540
Ni	12.2045	3.1406	13.6845
O	13.8513	4.3397	14.1939
O	16.7502	8.1370	19.3399
O	16.9160	1.7693	14.1038
O	13.6045	10.6777	19.2498
O	18.0200	4.5456	15.1466
O	14.8232	7.9607	20.3330
O	12.4611	1.7540	15.1732
O	15.4773	10.8027	20.3545
O	19.9481	4.3959	14.1434
O	23.0363	8.2656	19.3355
O	23.0538	2.0129	14.1810
O	19.9195	10.7191	19.2636
O	24.4135	4.5126	15.1472
O	21.0920	8.0401	20.2817
O	18.7746	1.6552	15.2304
O	21.8164	10.8258	20.3202
C	15.8981	24.7662	5.5190
C	12.8290	12.6904	0.3845
C	17.2912	12.5762	5.5469
C	14.1771	24.8622	0.4452
C	18.0928	24.3464	6.3976
C	15.0022	13.0642	1.3574
C	15.0916	19.1691	5.4819
C	18.2692	18.3381	0.2426
C	15.4713	20.2333	6.3449
C	18.6967	17.2736	1.0880
C	15.4056	23.7342	6.3717
C	24.8309	13.7136	1.1979
C	17.5276	23.3552	7.2115
C	14.4303	14.1525	2.0730
C	13.4236	20.1556	7.4439
C	16.6058	17.1404	2.0681
C	12.9811	19.1094	6.6239
C	16.1137	18.1984	1.2960
C	13.7981	18.5827	5.6274
C	16.9407	18.8478	0.3858
C	17.8377	13.6986	4.7688
C	14.5038	23.7706	9.9172
C	13.3443	17.4684	4.7866
C	16.2373	20.0192	9.9134
C	22.1806	24.7649	5.3836
C	19.3303	13.0309	0.1802
C	23.4146	12.8356	5.6393
C	20.5784	24.9180	0.4569
C	24.1613	24.8392	6.7446
C	21.2860	12.8502	1.5649
C	21.3597	18.8895	5.6713
C	24.5916	18.5908	0.3312
C	21.8177	19.9705	6.4834
C	12.5435	17.5302	1.1232
C	21.7221	23.7046	6.1757
C	18.8768	14.0663	1.0395
C	23.6347	23.7434	7.4897
C	20.7534	13.8519	2.3881
C	19.6444	20.4721	7.1173
C	22.9764	17.2825	2.1369
C	19.1159	19.4381	6.3366
C	22.4570	18.4061	1.4334
C	19.9526	18.6311	5.5744
C	23.2851	19.0573	0.4655
C	23.9556	13.9107	4.7977
C	20.8597	23.8162	9.9066
C	19.4365	17.5207	4.7610
C	22.5464	20.1630	9.9242
H	12.5476	19.0613	9.9098
H	16.4528	20.6981	6.2465
H	13.5605	17.1556	1.0513
H	14.3488	23.4703	6.3613
H	17.9360	14.5729	0.8275
H	18.1263	22.7876	7.9162
H	15.0580	14.7816	2.7020
H	12.7971	20.5680	8.2306
H	15.9772	16.6141	2.7798
H	18.0462	19.2448	6.3805
H	15.0938	18.5397	1.4462
H	21.5526	12.5903	4.5698
H	24.4098	24.6661	10.0302
H	19.1556	24.5570	6.4805
H	22.2438	24.9312	1.8228
H	22.8826	20.1860	6.5704
H	19.7104	16.8822	1.0026
H	20.7685	23.2195	5.9877
H	23.7763	13.9752	1.2077
H	24.2090	23.3250	8.3169
H	21.2881	14.2094	3.2626
H	19.0057	21.0998	7.7297
H	22.3301	16.7036	2.7945
H	24.5041	18.6873	6.8163
H	14.0290	12.8621	4.8267
H	15.4457	13.7052	4.2293
H	16.7719	13.2346	2.3625
H	16.6459	24.4442	1.1083
H	16.9252	19.0410	4.5583
H	15.6856	17.9146	4.0206
H	19.8753	18.5857	9.6058
H	18.5727	19.6722	9.0981
H	13.3139	24.8585	7.9188
H	13.2110	13.6193	6.6458
H	17.4200	13.0830	9.2754
H	18.6613	24.4101	8.8503
H	23.2603	18.0927	5.1812
H	21.8296	17.2962	4.5620
H	20.6997	18.3123	2.4706
H	20.8535	19.6266	1.2282
N	16.1989	23.0867	7.2293
N	13.1264	14.4226	2.0369
N	14.6632	20.6894	7.3020
N	17.8978	16.7335	2.0135
N	22.4419	23.2188	7.2205
N	19.5514	14.4276	2.1329
N	20.9763	20.7226	7.1986
N	24.2486	16.9042	2.0248
N	15.0483	12.9131	4.7474
N	16.2753	12.7496	1.5967
N	15.9529	18.7396	4.5674
N	18.8943	18.8569	9.6356
N	12.8239	12.8159	7.1541
N	18.3415	12.6762	9.4227
N	22.2331	18.0915	5.0732
N	21.2223	18.8121	1.7386
Ni	15.4049	21.9138	8.6647
Ni	18.6754	15.5910	3.4915
Ni	21.7013	21.9830	8.5797
Ni	12.4321	15.6640	3.4102
O	14.0789	16.8631	3.9196
O	16.9778	20.6604	9.0656
O	17.1436	14.2927	3.8295
O	13.8321	23.2011	8.9755
O	18.2476	17.0690	4.8723
O	15.0508	20.4841	10.0587
O	12.6887	14.2774	4.8989
O	15.7049	23.3261	10.0802
O	20.1757	16.9193	3.8691
O	23.2639	20.7890	9.0612
O	23.2814	14.5364	3.9067
O	20.1471	23.2425	8.9893
O	24.6411	17.0360	4.8729
O	21.3195	20.5635	10.0074
O	19.0022	14.1786	4.9561
O	22.0440	23.3492	10.0459
C	15.6705	24.7662	15.7933
C	12.6014	12.6904	10.6588
C	17.0636	12.5762	15.8212
C	13.9495	24.8622	10.7195
C	17.8652	24.3464	16.6719
C	14.7747	13.0642	11.6317
C	14.8640	19.1691	15.7562
C	18.0416	18.3381	10.5169
C	15.2437	20.2333	16.6192
C	18.4691	17.2736	11.3623
C	15.1781	23.7342	16.6459
C	24.6033	13.7136	11.4722
C	17.3000	23.3552	17.4858
C	14.2027	14.1525	12.3473
C	13.1960	20.1556	17.7182
C	16.3783	17.1404	12.3424
C	12.7535	19.1094	16.8982
C	15.8862	18.1984	11.5703
C	13.5705	18.5827	15.9017
C	16.7132	18.8478	10.6601
C	17.6101	13.6986	15.0431
C	14.2762	23.7706	20.1915
C	13.1167	17.4684	15.0609
C	16.0098	20.0192	20.1877
C	21.9530	24.7649	15.6579
C	19.1027	13.0309	10.4545
C	23.1870	12.8356	15.9136
C	20.3508	24.9180	10.7312
C	23.9337	24.8392	17.0189
C	21.0584	12.8502	11.8392
C	21.1321	18.8895	15.9455
C	24.3640	18.5908	10.6055
C	21.5901	19.9705	16.7577
C	12.3159	17.5302	11.3975
C	21.4945	23.7046	16.4499
C	18.6492	14.0663	11.3138
C	23.4071	23.7434	17.7640
C	20.5258	13.8519	12.6624
C	19.4168	20.4721	17.3916
C	22.7488	17.2825	12.4111
C	18.8884	19.4381	16.6109
C	22.2294	18.4061	11.7077
C	19.7250	18.6311	15.8487
C	23.0575	19.0573	10.7397
C	23.7280	13.9107	15.0719
C	20.6321	23.8162	20.1809
C	19.2089	17.5207	15.0353
C	22.3188	20.1630	20.1985
H	12.3200	19.0613	20.1841
H	16.2252	20.6981	16.5207
H	13.3329	17.1556	11.3255
H	14.1212	23.4703	16.6356
H	17.7084	14.5729	11.1018
H	17.8988	22.7876	18.1905
H	14.8304	14.7816	12.9763
H	12.5695	20.5680	18.5049
H	15.7496	16.6141	13.0541
H	17.8186	19.2448	16.6548
H	14.8662	18.5397	11.7205
H	21.3251	12.5903	14.8441
H	24.1823	24.6661	20.3045
H	18.9280	24.5570	16.7548
H	22.0162	24.9312	12.0970
H	22.6550	20.1860	16.8447
H	19.4828	16.8822	11.2769
H	20.5410	23.2195	16.2620
H	23.5487	13.9752	11.4820
H	23.9814	23.3250	18.5911
H	21.0605	14.2094	13.5369
H	18.7781	21.0998	18.0040
H	22.1025	16.7036	13.0688
H	24.2765	18.6873	17.0905
H	13.8014	12.8621	15.1010
H	15.2181	13.7052	14.5036
H	16.5443	13.2346	12.6368
H	16.4183	24.4442	11.3826
H	16.6976	19.0410	14.8326
H	15.4580	17.9146	14.2949
H	19.6477	18.5857	19.8801
H	18.3451	19.6722	19.3723
H	13.0863	24.8585	18.1931
H	12.9834	13.6193	16.9201
H	17.1924	13.0830	19.5497
H	18.4337	24.4101	19.1246
H	23.0327	18.0927	15.4555
H	21.6020	17.2962	14.8363
H	20.4721	18.3123	12.7449
H	20.6259	19.6266	11.5025
N	15.9714	23.0867	17.5036
N	12.8988	14.4226	12.3112
N	14.4356	20.6894	17.5762
N	17.6703	16.7335	12.2878
N	22.2143	23.2188	17.4948
N	19.3238	14.4276	12.4072
N	20.7487	20.7226	17.4729
N	24.0210	16.9042	12.2991
N	14.8207	12.9131	15.0217
N	16.0477	12.7496	11.8710
N	15.7253	18.7396	14.8417
N	18.6667	18.8569	19.9098
N	12.5964	12.8159	17.4284
N	18.1139	12.6762	19.6970
N	22.0055	18.0915	15.3475
N	20.9947	18.8121	12.0129
Ni	15.1773	21.9138	18.9390
Ni	18.4478	15.5910	13.7658
Ni	21.4738	21.9830	18.8540
Ni	12.2045	15.6640	13.6845
O	13.8513	16.8631	14.1939
O	16.7502	20.6604	19.3399
O	16.9160	14.2927	14.1038
O	13.6045	23.2011	19.2498
O	18.0200	17.0690	15.1466
O	14.8232	20.4841	20.3330
O	12.4611	14.2774	15.1732
O	15.4773	23.3261	20.3545
O	19.9481	16.9193	14.1434
O	23.0363	20.7890	19.3355
O	23.0538	14.5364	14.1810
O	19.9195	23.2425	19.2636
O	24.4135	17.0360	15.1472
O	21.0920	20.5635	20.2817
O	18.7746	14.1786	15.2304
O	21.8164	23.3492	20.3202
