1458

Ni	2.9028	9.4421	8.6245
O	1.4194	4.3784	4.0368
O	4.6360	1.6666	3.8035
O	5.7451	4.4111	5.1094
O	0.3079	1.5003	4.8721
N	3.7677	10.5560	7.1530
N	2.0951	8.0914	7.3471
C	3.5585	12.0137	5.2748
H	3.0266	12.3506	4.5628
C	4.8383	12.4984	5.4834
C	5.5898	11.9548	6.5283
H	0.2284	12.2454	6.6834
C	2.4254	6.5009	5.5902
H	2.9870	6.1490	4.9091
C	2.8617	7.5541	6.3875
H	3.7328	7.9060	6.2457
C	3.0629	11.0319	6.1132
H	2.1949	10.6825	5.9498
C	5.0180	10.9918	7.3328
H	5.5326	10.6236	8.0407
C	0.8614	7.5704	7.5475
H	0.3136	7.9473	8.2266
C	0.3657	6.5159	6.8077
H	5.7518	6.1678	6.9773
C	1.1715	5.9737	5.8009
C	5.3864	1.1183	4.6748
C	0.6533	4.8365	4.9471
Ni	5.9154	-9.4421	13.7617
O	4.4320	-4.3784	9.1739
O	7.6486	-1.6666	8.9407
O	8.7577	-4.4111	10.2465
O	3.3205	-1.5003	10.0092
N	6.7803	-10.5560	12.2901
N	5.1077	-8.0914	12.4843
C	6.5712	-12.0137	10.4120
H	6.0392	-12.3506	9.6999
C	7.8509	-12.4984	10.6205
C	8.6024	-11.9548	11.6654
H	3.2410	-12.2454	11.8206
C	5.4380	-6.5009	10.7274
H	5.9996	-6.1490	10.0462
C	5.8743	-7.5541	11.5247
H	6.7454	-7.9060	11.3829
C	6.0755	-11.0319	11.2503
H	5.2075	-10.6825	11.0870
C	8.0306	-10.9918	12.4699
H	8.5452	-10.6236	13.1778
C	3.8740	-7.5704	12.6846
H	3.3262	-7.9473	13.3638
C	3.3783	-6.5159	11.9449
H	8.7644	-6.1678	12.1144
C	4.1841	-5.9737	10.9380
C	8.3990	-1.1183	9.8119
C	3.6659	-4.8365	10.0842
Ni	2.6752	9.4421	18.8988
O	1.1918	4.3784	14.3110
O	4.4084	1.6666	14.0778
O	5.5175	4.4111	15.3837
O	0.0803	1.5003	15.1463
N	3.5401	10.5560	17.4272
N	1.8675	8.0914	17.6214
C	3.3310	12.0137	15.5491
H	2.7990	12.3506	14.8371
C	4.6107	12.4984	15.7577
C	5.3622	11.9548	16.8026
H	0.0008	12.2454	16.9577
C	2.1978	6.5009	15.8645
H	2.7594	6.1490	15.1833
C	2.6341	7.5541	16.6618
H	3.5052	7.9060	16.5200
C	2.8353	11.0319	16.3875
H	1.9673	10.6825	16.2241
C	4.7904	10.9918	17.6070
H	5.3050	10.6236	18.3149
C	0.6338	7.5704	17.8218
H	0.0860	7.9473	18.5009
C	0.1381	6.5159	17.0820
H	5.5242	6.1678	17.2515
C	0.9439	5.9737	16.0751
C	5.1588	1.1183	14.9491
C	0.4257	4.8365	15.2213
Ni	5.6878	-9.4421	24.0360
O	4.2044	-4.3784	19.4482
O	7.4210	-1.6666	19.2150
O	8.5301	-4.4111	20.5208
O	3.0929	-1.5003	20.2835
N	6.5527	-10.5560	22.5644
N	4.8801	-8.0914	22.7586
C	6.3436	-12.0137	20.6862
H	5.8116	-12.3506	19.9742
C	7.6233	-12.4984	20.8948
C	8.3748	-11.9548	21.9397
H	3.0134	-12.2454	22.0948
C	5.2104	-6.5009	21.0017
H	5.7720	-6.1490	20.3205
C	5.6467	-7.5541	21.7989
H	6.5178	-7.9060	21.6572
C	5.8479	-11.0319	21.5246
H	4.9799	-10.6825	21.3613
C	7.8030	-10.9918	22.7442
H	8.3176	-10.6236	23.4521
C	3.6464	-7.5704	22.9589
H	3.0986	-7.9473	23.6380
C	3.1507	-6.5159	22.2192
H	8.5368	-6.1678	22.3887
C	3.9565	-5.9737	21.2123
C	8.1714	-1.1183	20.0862
C	3.4383	-4.8365	20.3585
Ni	2.4476	9.4421	29.1731
O	0.9642	4.3784	24.5853
O	4.1808	1.6666	24.3521
O	5.2899	4.4111	25.6580
O	-0.1473	1.5003	25.4206
N	3.3125	10.5560	27.7015
N	1.6399	8.0914	27.8957
C	3.1034	12.0137	25.8234
H	2.5714	12.3506	25.1114
C	4.3831	12.4984	26.0319
C	5.1346	11.9548	27.0768
H	-0.2268	12.2454	27.2320
C	1.9702	6.5009	26.1388
H	2.5318	6.1490	25.4576
C	2.4065	7.5541	26.9361
H	3.2776	7.9060	26.7943
C	2.6077	11.0319	26.6618
H	1.7397	10.6825	26.4984
C	4.5628	10.9918	27.8813
H	5.0774	10.6236	28.5892
C	0.4062	7.5704	28.0960
H	-0.1416	7.9473	28.7752
C	-0.0895	6.5159	27.3563
H	5.2966	6.1678	27.5258
C	0.7163	5.9737	26.3494
C	4.9312	1.1183	25.2234
C	0.1981	4.8365	25.4956
Ni	5.4603	-9.4421	34.3102
O	3.9768	-4.3784	29.7225
O	7.1934	-1.6666	29.4892
O	8.3025	-4.4111	30.7951
O	2.8653	-1.5003	30.5578
N	6.3251	-10.5560	32.8387
N	4.6525	-8.0914	33.0328
C	6.1160	-12.0137	30.9605
H	5.5840	-12.3506	30.2485
C	7.3957	-12.4984	31.1691
C	8.1472	-11.9548	32.2140
H	2.7858	-12.2454	32.3691
C	4.9828	-6.5009	31.2759
H	5.5444	-6.1490	30.5947
C	5.4191	-7.5541	32.0732
H	6.2902	-7.9060	31.9314
C	5.6203	-11.0319	31.7989
H	4.7523	-10.6825	31.6355
C	7.5754	-10.9918	33.0185
H	8.0900	-10.6236	33.7263
C	3.4188	-7.5704	33.2332
H	2.8710	-7.9473	33.9123
C	2.9231	-6.5159	32.4934
H	8.3092	-6.1678	32.6630
C	3.7289	-5.9737	31.4866
C	7.9438	-1.1183	30.3605
C	3.2107	-4.8365	30.6328
Ni	2.9028	21.9655	8.6245
O	1.4194	16.9018	4.0368
O	4.6360	14.1900	3.8035
O	5.7451	16.9345	5.1094
O	0.3079	14.0237	4.8721
N	3.7677	23.0794	7.1530
N	2.0951	20.6148	7.3471
C	3.5585	24.5371	5.2748
H	3.0266	24.8740	4.5628
C	4.8383	25.0218	5.4834
C	5.5898	24.4782	6.5283
H	0.2284	24.7688	6.6834
C	2.4254	19.0243	5.5902
H	2.9870	18.6724	4.9091
C	2.8617	20.0775	6.3875
H	3.7328	20.4294	6.2457
C	3.0629	23.5553	6.1132
H	2.1949	23.2059	5.9498
C	5.0180	23.5152	7.3328
H	5.5326	23.1470	8.0407
C	0.8614	20.0938	7.5475
H	0.3136	20.4707	8.2266
C	0.3657	19.0393	6.8077
H	5.7518	18.6912	6.9773
C	1.1715	18.4971	5.8009
C	5.3864	13.6417	4.6748
C	0.6533	17.3599	4.9471
Ni	5.9154	3.0813	13.7617
O	4.4320	8.1450	9.1739
O	7.6486	10.8568	8.9407
O	8.7577	8.1123	10.2465
O	3.3205	11.0231	10.0092
N	6.7803	1.9674	12.2901
N	5.1077	4.4320	12.4843
C	6.5712	0.5097	10.4120
H	6.0392	0.1728	9.6999
C	7.8509	0.0250	10.6205
C	8.6024	0.5686	11.6654
H	3.2410	0.2780	11.8206
C	5.4380	6.0225	10.7274
H	5.9996	6.3744	10.0462
C	5.8743	4.9693	11.5247
H	6.7454	4.6174	11.3829
C	6.0755	1.4915	11.2503
H	5.2075	1.8409	11.0870
C	8.0306	1.5316	12.4699
H	8.5452	1.8998	13.1778
C	3.8740	4.9530	12.6846
H	3.3262	4.5761	13.3638
C	3.3783	6.0075	11.9449
H	8.7644	6.3556	12.1144
C	4.1841	6.5497	10.9380
C	8.3990	11.4051	9.8119
C	3.6659	7.6869	10.0842
Ni	2.6752	21.9655	18.8988
O	1.1918	16.9018	14.3110
O	4.4084	14.1900	14.0778
O	5.5175	16.9345	15.3837
O	0.0803	14.0237	15.1463
N	3.5401	23.0794	17.4272
N	1.8675	20.6148	17.6214
C	3.3310	24.5371	15.5491
H	2.7990	24.8740	14.8371
C	4.6107	25.0218	15.7577
C	5.3622	24.4782	16.8026
H	0.0008	24.7688	16.9577
C	2.1978	19.0243	15.8645
H	2.7594	18.6724	15.1833
C	2.6341	20.0775	16.6618
H	3.5052	20.4294	16.5200
C	2.8353	23.5553	16.3875
H	1.9673	23.2059	16.2241
C	4.7904	23.5152	17.6070
H	5.3050	23.1470	18.3149
C	0.6338	20.0938	17.8218
H	0.0860	20.4707	18.5009
C	0.1381	19.0393	17.0820
H	5.5242	18.6912	17.2515
C	0.9439	18.4971	16.0751
C	5.1588	13.6417	14.9491
C	0.4257	17.3599	15.2213
Ni	5.6878	3.0813	24.0360
O	4.2044	8.1450	19.4482
O	7.4210	10.8568	19.2150
O	8.5301	8.1123	20.5208
O	3.0929	11.0231	20.2835
N	6.5527	1.9674	22.5644
N	4.8801	4.4320	22.7586
C	6.3436	0.5097	20.6862
H	5.8116	0.1728	19.9742
C	7.6233	0.0250	20.8948
C	8.3748	0.5686	21.9397
H	3.0134	0.2780	22.0948
C	5.2104	6.0225	21.0017
H	5.7720	6.3744	20.3205
C	5.6467	4.9693	21.7989
H	6.5178	4.6174	21.6572
C	5.8479	1.4915	21.5246
H	4.9799	1.8409	21.3613
C	7.8030	1.5316	22.7442
H	8.3176	1.8998	23.4521
C	3.6464	4.9530	22.9589
H	3.0986	4.5761	23.6380
C	3.1507	6.0075	22.2192
H	8.5368	6.3556	22.3887
C	3.9565	6.5497	21.2123
C	8.1714	11.4051	20.0862
C	3.4383	7.6869	20.3585
Ni	2.4476	21.9655	29.1731
O	0.9642	16.9018	24.5853
O	4.1808	14.1900	24.3521
O	5.2899	16.9345	25.6580
O	-0.1473	14.0237	25.4206
N	3.3125	23.0794	27.7015
N	1.6399	20.6148	27.8957
C	3.1034	24.5371	25.8234
H	2.5714	24.8740	25.1114
C	4.3831	25.0218	26.0319
C	5.1346	24.4782	27.0768
H	-0.2268	24.7688	27.2320
C	1.9702	19.0243	26.1388
H	2.5318	18.6724	25.4576
C	2.4065	20.0775	26.9361
H	3.2776	20.4294	26.7943
C	2.6077	23.5553	26.6618
H	1.7397	23.2059	26.4984
C	4.5628	23.5152	27.8813
H	5.0774	23.1470	28.5892
C	0.4062	20.0938	28.0960
H	-0.1416	20.4707	28.7752
C	-0.0895	19.0393	27.3563
H	5.2966	18.6912	27.5258
C	0.7163	18.4971	26.3494
C	4.9312	13.6417	25.2234
C	0.1981	17.3599	25.4956
Ni	5.4603	3.0813	34.3102
O	3.9768	8.1450	29.7225
O	7.1934	10.8568	29.4892
O	8.3025	8.1123	30.7951
O	2.8653	11.0231	30.5578
N	6.3251	1.9674	32.8387
N	4.6525	4.4320	33.0328
C	6.1160	0.5097	30.9605
H	5.5840	0.1728	30.2485
C	7.3957	0.0250	31.1691
C	8.1472	0.5686	32.2140
H	2.7858	0.2780	32.3691
C	4.9828	6.0225	31.2759
H	5.5444	6.3744	30.5947
C	5.4191	4.9693	32.0732
H	6.2902	4.6174	31.9314
C	5.6203	1.4915	31.7989
H	4.7523	1.8409	31.6355
C	7.5754	1.5316	33.0185
H	8.0900	1.8998	33.7263
C	3.4188	4.9530	33.2332
H	2.8710	4.5761	33.9123
C	2.9231	6.0075	32.4934
H	8.3092	6.3556	32.6630
C	3.7289	6.5497	31.4866
C	7.9438	11.4051	30.3605
C	3.2107	7.6869	30.6328
Ni	2.9028	34.4889	8.6245
O	1.4194	29.4252	4.0368
O	4.6360	26.7134	3.8035
O	5.7451	29.4579	5.1094
O	0.3079	26.5471	4.8721
N	3.7677	35.6028	7.1530
N	2.0951	33.1382	7.3471
C	3.5585	37.0605	5.2748
H	3.0266	37.3974	4.5628
C	4.8383	37.5452	5.4834
C	5.5898	37.0016	6.5283
H	0.2284	37.2922	6.6834
C	2.4254	31.5477	5.5902
H	2.9870	31.1958	4.9091
C	2.8617	32.6009	6.3875
H	3.7328	32.9528	6.2457
C	3.0629	36.0787	6.1132
H	2.1949	35.7293	5.9498
C	5.0180	36.0386	7.3328
H	5.5326	35.6704	8.0407
C	0.8614	32.6172	7.5475
H	0.3136	32.9941	8.2266
C	0.3657	31.5627	6.8077
H	5.7518	31.2146	6.9773
C	1.1715	31.0205	5.8009
C	5.3864	26.1651	4.6748
C	0.6533	29.8833	4.9471
Ni	5.9154	15.6047	13.7617
O	4.4320	20.6684	9.1739
O	7.6486	23.3802	8.9407
O	8.7577	20.6357	10.2465
O	3.3205	23.5465	10.0092
N	6.7803	14.4908	12.2901
N	5.1077	16.9554	12.4843
C	6.5712	13.0331	10.4120
H	6.0392	12.6962	9.6999
C	7.8509	12.5484	10.6205
C	8.6024	13.0920	11.6654
H	3.2410	12.8014	11.8206
C	5.4380	18.5459	10.7274
H	5.9996	18.8978	10.0462
C	5.8743	17.4927	11.5247
H	6.7454	17.1408	11.3829
C	6.0755	14.0149	11.2503
H	5.2075	14.3643	11.0870
C	8.0306	14.0550	12.4699
H	8.5452	14.4232	13.1778
C	3.8740	17.4764	12.6846
H	3.3262	17.0995	13.3638
C	3.3783	18.5309	11.9449
H	8.7644	18.8790	12.1144
C	4.1841	19.0731	10.9380
C	8.3990	23.9285	9.8119
C	3.6659	20.2103	10.0842
Ni	2.6752	34.4889	18.8988
O	1.1918	29.4252	14.3110
O	4.4084	26.7134	14.0778
O	5.5175	29.4579	15.3837
O	0.0803	26.5471	15.1463
N	3.5401	35.6028	17.4272
N	1.8675	33.1382	17.6214
C	3.3310	37.0605	15.5491
H	2.7990	37.3974	14.8371
C	4.6107	37.5452	15.7577
C	5.3622	37.0016	16.8026
H	0.0008	37.2922	16.9577
C	2.1978	31.5477	15.8645
H	2.7594	31.1958	15.1833
C	2.6341	32.6009	16.6618
H	3.5052	32.9528	16.5200
C	2.8353	36.0787	16.3875
H	1.9673	35.7293	16.2241
C	4.7904	36.0386	17.6070
H	5.3050	35.6704	18.3149
C	0.6338	32.6172	17.8218
H	0.0860	32.9941	18.5009
C	0.1381	31.5627	17.0820
H	5.5242	31.2146	17.2515
C	0.9439	31.0205	16.0751
C	5.1588	26.1651	14.9491
C	0.4257	29.8833	15.2213
Ni	5.6878	15.6047	24.0360
O	4.2044	20.6684	19.4482
O	7.4210	23.3802	19.2150
O	8.5301	20.6357	20.5208
O	3.0929	23.5465	20.2835
N	6.5527	14.4908	22.5644
N	4.8801	16.9554	22.7586
C	6.3436	13.0331	20.6862
H	5.8116	12.6962	19.9742
C	7.6233	12.5484	20.8948
C	8.3748	13.0920	21.9397
H	3.0134	12.8014	22.0948
C	5.2104	18.5459	21.0017
H	5.7720	18.8978	20.3205
C	5.6467	17.4927	21.7989
H	6.5178	17.1408	21.6572
C	5.8479	14.0149	21.5246
H	4.9799	14.3643	21.3613
C	7.8030	14.0550	22.7442
H	8.3176	14.4232	23.4521
C	3.6464	17.4764	22.9589
H	3.0986	17.0995	23.6380
C	3.1507	18.5309	22.2192
H	8.5368	18.8790	22.3887
C	3.9565	19.0731	21.2123
C	8.1714	23.9285	20.0862
C	3.4383	20.2103	20.3585
Ni	2.4476	34.4889	29.1731
O	0.9642	29.4252	24.5853
O	4.1808	26.7134	24.3521
O	5.2899	29.4579	25.6580
O	-0.1473	26.5471	25.4206
N	3.3125	35.6028	27.7015
N	1.6399	33.1382	27.8957
C	3.1034	37.0605	25.8234
H	2.5714	37.3974	25.1114
C	4.3831	37.5452	26.0319
C	5.1346	37.0016	27.0768
H	-0.2268	37.2922	27.2320
C	1.9702	31.5477	26.1388
H	2.5318	31.1958	25.4576
C	2.4065	32.6009	26.9361
H	3.2776	32.9528	26.7943
C	2.6077	36.0787	26.6618
H	1.7397	35.7293	26.4984
C	4.5628	36.0386	27.8813
H	5.0774	35.6704	28.5892
C	0.4062	32.6172	28.0960
H	-0.1416	32.9941	28.7752
C	-0.0895	31.5627	27.3563
H	5.2966	31.2146	27.5258
C	0.7163	31.0205	26.3494
C	4.9312	26.1651	25.2234
C	0.1981	29.8833	25.4956
Ni	5.4603	15.6047	34.3102
O	3.9768	20.6684	29.7225
O	7.1934	23.3802	29.4892
O	8.3025	20.6357	30.7951
O	2.8653	23.5465	30.5578
N	6.3251	14.4908	32.8387
N	4.6525	16.9554	33.0328
C	6.1160	13.0331	30.9605
H	5.5840	12.6962	30.2485
C	7.3957	12.5484	31.1691
C	8.1472	13.0920	32.2140
H	2.7858	12.8014	32.3691
C	4.9828	18.5459	31.2759
H	5.5444	18.8978	30.5947
C	5.4191	17.4927	32.0732
H	6.2902	17.1408	31.9314
C	5.6203	14.0149	31.7989
H	4.7523	14.3643	31.6355
C	7.5754	14.0550	33.0185
H	8.0900	14.4232	33.7263
C	3.4188	17.4764	33.2332
H	2.8710	17.0995	33.9123
C	2.9231	18.5309	32.4934
H	8.3092	18.8790	32.6630
C	3.7289	19.0731	31.4866
C	7.9438	23.9285	30.3605
C	3.2107	20.2103	30.6328
Ni	9.1556	9.4421	8.6245
O	7.6722	4.3784	4.0368
O	10.8888	1.6666	3.8035
O	11.9979	4.4111	5.1094
O	6.5607	1.5003	4.8721
N	10.0205	10.5560	7.1530
N	8.3479	8.0914	7.3471
C	9.8113	12.0137	5.2748
H	9.2794	12.3506	4.5628
C	11.0911	12.4984	5.4834
C	11.8426	11.9548	6.5283
H	6.4812	12.2454	6.6834
C	8.6782	6.5009	5.5902
H	9.2398	6.1490	4.9091
C	9.1145	7.5541	6.3875
H	9.9856	7.9060	6.2457
C	9.3157	11.0319	6.1132
H	8.4477	10.6825	5.9498
C	11.2708	10.9918	7.3328
H	11.7854	10.6236	8.0407
C	7.1142	7.5704	7.5475
H	6.5664	7.9473	8.2266
C	6.6185	6.5159	6.8077
H	12.0046	6.1678	6.9773
C	7.4243	5.9737	5.8009
C	11.6392	1.1183	4.6748
C	6.9061	4.8365	4.9471
Ni	12.1682	-9.4421	13.7617
O	10.6848	-4.3784	9.1739
O	13.9014	-1.6666	8.9407
O	15.0105	-4.4111	10.2465
O	9.5733	-1.5003	10.0092
N	13.0331	-10.5560	12.2901
N	11.3605	-8.0914	12.4843
C	12.8240	-12.0137	10.4120
H	12.2920	-12.3506	9.6999
C	14.1037	-12.4984	10.6205
C	14.8552	-11.9548	11.6654
H	9.4938	-12.2454	11.8206
C	11.6908	-6.5009	10.7274
H	12.2524	-6.1490	10.0462
C	12.1271	-7.5541	11.5247
H	12.9982	-7.9060	11.3829
C	12.3283	-11.0319	11.2503
H	11.4603	-10.6825	11.0870
C	14.2834	-10.9918	12.4699
H	14.7980	-10.6236	13.1778
C	10.1268	-7.5704	12.6846
H	9.5790	-7.9473	13.3638
C	9.6311	-6.5159	11.9449
H	15.0172	-6.1678	12.1144
C	10.4369	-5.9737	10.9380
C	14.6518	-1.1183	9.8119
C	9.9187	-4.8365	10.0842
Ni	8.9280	9.4421	18.8988
O	7.4446	4.3784	14.3110
O	10.6612	1.6666	14.0778
O	11.7703	4.4111	15.3837
O	6.3331	1.5003	15.1463
N	9.7929	10.5560	17.4272
N	8.1203	8.0914	17.6214
C	9.5838	12.0137	15.5491
H	9.0518	12.3506	14.8371
C	10.8635	12.4984	15.7577
C	11.6150	11.9548	16.8026
H	6.2536	12.2454	16.9577
C	8.4506	6.5009	15.8645
H	9.0122	6.1490	15.1833
C	8.8869	7.5541	16.6618
H	9.7580	7.9060	16.5200
C	9.0881	11.0319	16.3875
H	8.2201	10.6825	16.2241
C	11.0432	10.9918	17.6070
H	11.5578	10.6236	18.3149
C	6.8866	7.5704	17.8218
H	6.3388	7.9473	18.5009
C	6.3909	6.5159	17.0820
H	11.7770	6.1678	17.2515
C	7.1967	5.9737	16.0751
C	11.4116	1.1183	14.9491
C	6.6785	4.8365	15.2213
Ni	11.9406	-9.4421	24.0360
O	10.4572	-4.3784	19.4482
O	13.6738	-1.6666	19.2150
O	14.7829	-4.4111	20.5208
O	9.3457	-1.5003	20.2835
N	12.8055	-10.5560	22.5644
N	11.1329	-8.0914	22.7586
C	12.5964	-12.0137	20.6862
H	12.0644	-12.3506	19.9742
C	13.8761	-12.4984	20.8948
C	14.6276	-11.9548	21.9397
H	9.2662	-12.2454	22.0948
C	11.4632	-6.5009	21.0017
H	12.0248	-6.1490	20.3205
C	11.8995	-7.5541	21.7989
H	12.7706	-7.9060	21.6572
C	12.1007	-11.0319	21.5246
H	11.2327	-10.6825	21.3613
C	14.0558	-10.9918	22.7442
H	14.5704	-10.6236	23.4521
C	9.8992	-7.5704	22.9589
H	9.3514	-7.9473	23.6380
C	9.4035	-6.5159	22.2192
H	14.7896	-6.1678	22.3887
C	10.2093	-5.9737	21.2123
C	14.4242	-1.1183	20.0862
C	9.6911	-4.8365	20.3585
Ni	8.7004	9.4421	29.1731
O	7.2170	4.3784	24.5853
O	10.4336	1.6666	24.3521
O	11.5427	4.4111	25.6580
O	6.1055	1.5003	25.4206
N	9.5653	10.5560	27.7015
N	7.8927	8.0914	27.8957
C	9.3562	12.0137	25.8234
H	8.8242	12.3506	25.1114
C	10.6359	12.4984	26.0319
C	11.3874	11.9548	27.0768
H	6.0260	12.2454	27.2320
C	8.2230	6.5009	26.1388
H	8.7846	6.1490	25.4576
C	8.6593	7.5541	26.9361
H	9.5304	7.9060	26.7943
C	8.8605	11.0319	26.6618
H	7.9925	10.6825	26.4984
C	10.8156	10.9918	27.8813
H	11.3302	10.6236	28.5892
C	6.6590	7.5704	28.0960
H	6.1112	7.9473	28.7752
C	6.1633	6.5159	27.3563
H	11.5494	6.1678	27.5258
C	6.9691	5.9737	26.3494
C	11.1840	1.1183	25.2234
C	6.4509	4.8365	25.4956
Ni	11.7131	-9.4421	34.3102
O	10.2296	-4.3784	29.7225
O	13.4462	-1.6666	29.4892
O	14.5553	-4.4111	30.7951
O	9.1181	-1.5003	30.5578
N	12.5779	-10.5560	32.8387
N	10.9053	-8.0914	33.0328
C	12.3688	-12.0137	30.9605
H	11.8368	-12.3506	30.2485
C	13.6485	-12.4984	31.1691
C	14.4000	-11.9548	32.2140
H	9.0386	-12.2454	32.3691
C	11.2356	-6.5009	31.2759
H	11.7972	-6.1490	30.5947
C	11.6719	-7.5541	32.0732
H	12.5430	-7.9060	31.9314
C	11.8731	-11.0319	31.7989
H	11.0051	-10.6825	31.6355
C	13.8282	-10.9918	33.0185
H	14.3428	-10.6236	33.7263
C	9.6716	-7.5704	33.2332
H	9.1238	-7.9473	33.9123
C	9.1759	-6.5159	32.4934
H	14.5620	-6.1678	32.6630
C	9.9817	-5.9737	31.4866
C	14.1966	-1.1183	30.3605
C	9.4635	-4.8365	30.6328
Ni	9.1556	21.9655	8.6245
O	7.6722	16.9018	4.0368
O	10.8888	14.1900	3.8035
O	11.9979	16.9345	5.1094
O	6.5607	14.0237	4.8721
N	10.0205	23.0794	7.1530
N	8.3479	20.6148	7.3471
C	9.8113	24.5371	5.2748
H	9.2794	24.8740	4.5628
C	11.0911	25.0218	5.4834
C	11.8426	24.4782	6.5283
H	6.4812	24.7688	6.6834
C	8.6782	19.0243	5.5902
H	9.2398	18.6724	4.9091
C	9.1145	20.0775	6.3875
H	9.9856	20.4294	6.2457
C	9.3157	23.5553	6.1132
H	8.4477	23.2059	5.9498
C	11.2708	23.5152	7.3328
H	11.7854	23.1470	8.0407
C	7.1142	20.0938	7.5475
H	6.5664	20.4707	8.2266
C	6.6185	19.0393	6.8077
H	12.0046	18.6912	6.9773
C	7.4243	18.4971	5.8009
C	11.6392	13.6417	4.6748
C	6.9061	17.3599	4.9471
Ni	12.1682	3.0813	13.7617
O	10.6848	8.1450	9.1739
O	13.9014	10.8568	8.9407
O	15.0105	8.1123	10.2465
O	9.5733	11.0231	10.0092
N	13.0331	1.9674	12.2901
N	11.3605	4.4320	12.4843
C	12.8240	0.5097	10.4120
H	12.2920	0.1728	9.6999
C	14.1037	0.0250	10.6205
C	14.8552	0.5686	11.6654
H	9.4938	0.2780	11.8206
C	11.6908	6.0225	10.7274
H	12.2524	6.3744	10.0462
C	12.1271	4.9693	11.5247
H	12.9982	4.6174	11.3829
C	12.3283	1.4915	11.2503
H	11.4603	1.8409	11.0870
C	14.2834	1.5316	12.4699
H	14.7980	1.8998	13.1778
C	10.1268	4.9530	12.6846
H	9.5790	4.5761	13.3638
C	9.6311	6.0075	11.9449
H	15.0172	6.3556	12.1144
C	10.4369	6.5497	10.9380
C	14.6518	11.4051	9.8119
C	9.9187	7.6869	10.0842
Ni	8.9280	21.9655	18.8988
O	7.4446	16.9018	14.3110
O	10.6612	14.1900	14.0778
O	11.7703	16.9345	15.3837
O	6.3331	14.0237	15.1463
N	9.7929	23.0794	17.4272
N	8.1203	20.6148	17.6214
C	9.5838	24.5371	15.5491
H	9.0518	24.8740	14.8371
C	10.8635	25.0218	15.7577
C	11.6150	24.4782	16.8026
H	6.2536	24.7688	16.9577
C	8.4506	19.0243	15.8645
H	9.0122	18.6724	15.1833
C	8.8869	20.0775	16.6618
H	9.7580	20.4294	16.5200
C	9.0881	23.5553	16.3875
H	8.2201	23.2059	16.2241
C	11.0432	23.5152	17.6070
H	11.5578	23.1470	18.3149
C	6.8866	20.0938	17.8218
H	6.3388	20.4707	18.5009
C	6.3909	19.0393	17.0820
H	11.7770	18.6912	17.2515
C	7.1967	18.4971	16.0751
C	11.4116	13.6417	14.9491
C	6.6785	17.3599	15.2213
Ni	11.9406	3.0813	24.0360
O	10.4572	8.1450	19.4482
O	13.6738	10.8568	19.2150
O	14.7829	8.1123	20.5208
O	9.3457	11.0231	20.2835
N	12.8055	1.9674	22.5644
N	11.1329	4.4320	22.7586
C	12.5964	0.5097	20.6862
H	12.0644	0.1728	19.9742
C	13.8761	0.0250	20.8948
C	14.6276	0.5686	21.9397
H	9.2662	0.2780	22.0948
C	11.4632	6.0225	21.0017
H	12.0248	6.3744	20.3205
C	11.8995	4.9693	21.7989
H	12.7706	4.6174	21.6572
C	12.1007	1.4915	21.5246
H	11.2327	1.8409	21.3613
C	14.0558	1.5316	22.7442
H	14.5704	1.8998	23.4521
C	9.8992	4.9530	22.9589
H	9.3514	4.5761	23.6380
C	9.4035	6.0075	22.2192
H	14.7896	6.3556	22.3887
C	10.2093	6.5497	21.2123
C	14.4242	11.4051	20.0862
C	9.6911	7.6869	20.3585
Ni	8.7004	21.9655	29.1731
O	7.2170	16.9018	24.5853
O	10.4336	14.1900	24.3521
O	11.5427	16.9345	25.6580
O	6.1055	14.0237	25.4206
N	9.5653	23.0794	27.7015
N	7.8927	20.6148	27.8957
C	9.3562	24.5371	25.8234
H	8.8242	24.8740	25.1114
C	10.6359	25.0218	26.0319
C	11.3874	24.4782	27.0768
H	6.0260	24.7688	27.2320
C	8.2230	19.0243	26.1388
H	8.7846	18.6724	25.4576
C	8.6593	20.0775	26.9361
H	9.5304	20.4294	26.7943
C	8.8605	23.5553	26.6618
H	7.9925	23.2059	26.4984
C	10.8156	23.5152	27.8813
H	11.3302	23.1470	28.5892
C	6.6590	20.0938	28.0960
H	6.1112	20.4707	28.7752
C	6.1633	19.0393	27.3563
H	11.5494	18.6912	27.5258
C	6.9691	18.4971	26.3494
C	11.1840	13.6417	25.2234
C	6.4509	17.3599	25.4956
Ni	11.7131	3.0813	34.3102
O	10.2296	8.1450	29.7225
O	13.4462	10.8568	29.4892
O	14.5553	8.1123	30.7951
O	9.1181	11.0231	30.5578
N	12.5779	1.9674	32.8387
N	10.9053	4.4320	33.0328
C	12.3688	0.5097	30.9605
H	11.8368	0.1728	30.2485
C	13.6485	0.0250	31.1691
C	14.4000	0.5686	32.2140
H	9.0386	0.2780	32.3691
C	11.2356	6.0225	31.2759
H	11.7972	6.3744	30.5947
C	11.6719	4.9693	32.0732
H	12.5430	4.6174	31.9314
C	11.8731	1.4915	31.7989
H	11.0051	1.8409	31.6355
C	13.8282	1.5316	33.0185
H	14.3428	1.8998	33.7263
C	9.6716	4.9530	33.2332
H	9.1238	4.5761	33.9123
C	9.1759	6.0075	32.4934
H	14.5620	6.3556	32.6630
C	9.9817	6.5497	31.4866
C	14.1966	11.4051	30.3605
C	9.4635	7.6869	30.6328
Ni	9.1556	34.4889	8.6245
O	7.6722	29.4252	4.0368
O	10.8888	26.7134	3.8035
O	11.9979	29.4579	5.1094
O	6.5607	26.5471	4.8721
N	10.0205	35.6028	7.1530
N	8.3479	33.1382	7.3471
C	9.8113	37.0605	5.2748
H	9.2794	37.3974	4.5628
C	11.0911	37.5452	5.4834
C	11.8426	37.0016	6.5283
H	6.4812	37.2922	6.6834
C	8.6782	31.5477	5.5902
H	9.2398	31.1958	4.9091
C	9.1145	32.6009	6.3875
H	9.9856	32.9528	6.2457
C	9.3157	36.0787	6.1132
H	8.4477	35.7293	5.9498
C	11.2708	36.0386	7.3328
H	11.7854	35.6704	8.0407
C	7.1142	32.6172	7.5475
H	6.5664	32.9941	8.2266
C	6.6185	31.5627	6.8077
H	12.0046	31.2146	6.9773
C	7.4243	31.0205	5.8009
C	11.6392	26.1651	4.6748
C	6.9061	29.8833	4.9471
Ni	12.1682	15.6047	13.7617
O	10.6848	20.6684	9.1739
O	13.9014	23.3802	8.9407
O	15.0105	20.6357	10.2465
O	9.5733	23.5465	10.0092
N	13.0331	14.4908	12.2901
N	11.3605	16.9554	12.4843
C	12.8240	13.0331	10.4120
H	12.2920	12.6962	9.6999
C	14.1037	12.5484	10.6205
C	14.8552	13.0920	11.6654
H	9.4938	12.8014	11.8206
C	11.6908	18.5459	10.7274
H	12.2524	18.8978	10.0462
C	12.1271	17.4927	11.5247
H	12.9982	17.1408	11.3829
C	12.3283	14.0149	11.2503
H	11.4603	14.3643	11.0870
C	14.2834	14.0550	12.4699
H	14.7980	14.4232	13.1778
C	10.1268	17.4764	12.6846
H	9.5790	17.0995	13.3638
C	9.6311	18.5309	11.9449
H	15.0172	18.8790	12.1144
C	10.4369	19.0731	10.9380
C	14.6518	23.9285	9.8119
C	9.9187	20.2103	10.0842
Ni	8.9280	34.4889	18.8988
O	7.4446	29.4252	14.3110
O	10.6612	26.7134	14.0778
O	11.7703	29.4579	15.3837
O	6.3331	26.5471	15.1463
N	9.7929	35.6028	17.4272
N	8.1203	33.1382	17.6214
C	9.5838	37.0605	15.5491
H	9.0518	37.3974	14.8371
C	10.8635	37.5452	15.7577
C	11.6150	37.0016	16.8026
H	6.2536	37.2922	16.9577
C	8.4506	31.5477	15.8645
H	9.0122	31.1958	15.1833
C	8.8869	32.6009	16.6618
H	9.7580	32.9528	16.5200
C	9.0881	36.0787	16.3875
H	8.2201	35.7293	16.2241
C	11.0432	36.0386	17.6070
H	11.5578	35.6704	18.3149
C	6.8866	32.6172	17.8218
H	6.3388	32.9941	18.5009
C	6.3909	31.5627	17.0820
H	11.7770	31.2146	17.2515
C	7.1967	31.0205	16.0751
C	11.4116	26.1651	14.9491
C	6.6785	29.8833	15.2213
Ni	11.9406	15.6047	24.0360
O	10.4572	20.6684	19.4482
O	13.6738	23.3802	19.2150
O	14.7829	20.6357	20.5208
O	9.3457	23.5465	20.2835
N	12.8055	14.4908	22.5644
N	11.1329	16.9554	22.7586
C	12.5964	13.0331	20.6862
H	12.0644	12.6962	19.9742
C	13.8761	12.5484	20.8948
C	14.6276	13.0920	21.9397
H	9.2662	12.8014	22.0948
C	11.4632	18.5459	21.0017
H	12.0248	18.8978	20.3205
C	11.8995	17.4927	21.7989
H	12.7706	17.1408	21.6572
C	12.1007	14.0149	21.5246
H	11.2327	14.3643	21.3613
C	14.0558	14.0550	22.7442
H	14.5704	14.4232	23.4521
C	9.8992	17.4764	22.9589
H	9.3514	17.0995	23.6380
C	9.4035	18.5309	22.2192
H	14.7896	18.8790	22.3887
C	10.2093	19.0731	21.2123
C	14.4242	23.9285	20.0862
C	9.6911	20.2103	20.3585
Ni	8.7004	34.4889	29.1731
O	7.2170	29.4252	24.5853
O	10.4336	26.7134	24.3521
O	11.5427	29.4579	25.6580
O	6.1055	26.5471	25.4206
N	9.5653	35.6028	27.7015
N	7.8927	33.1382	27.8957
C	9.3562	37.0605	25.8234
H	8.8242	37.3974	25.1114
C	10.6359	37.5452	26.0319
C	11.3874	37.0016	27.0768
H	6.0260	37.2922	27.2320
C	8.2230	31.5477	26.1388
H	8.7846	31.1958	25.4576
C	8.6593	32.6009	26.9361
H	9.5304	32.9528	26.7943
C	8.8605	36.0787	26.6618
H	7.9925	35.7293	26.4984
C	10.8156	36.0386	27.8813
H	11.3302	35.6704	28.5892
C	6.6590	32.6172	28.0960
H	6.1112	32.9941	28.7752
C	6.1633	31.5627	27.3563
H	11.5494	31.2146	27.5258
C	6.9691	31.0205	26.3494
C	11.1840	26.1651	25.2234
C	6.4509	29.8833	25.4956
Ni	11.7131	15.6047	34.3102
O	10.2296	20.6684	29.7225
O	13.4462	23.3802	29.4892
O	14.5553	20.6357	30.7951
O	9.1181	23.5465	30.5578
N	12.5779	14.4908	32.8387
N	10.9053	16.9554	33.0328
C	12.3688	13.0331	30.9605
H	11.8368	12.6962	30.2485
C	13.6485	12.5484	31.1691
C	14.4000	13.0920	32.2140
H	9.0386	12.8014	32.3691
C	11.2356	18.5459	31.2759
H	11.7972	18.8978	30.5947
C	11.6719	17.4927	32.0732
H	12.5430	17.1408	31.9314
C	11.8731	14.0149	31.7989
H	11.0051	14.3643	31.6355
C	13.8282	14.0550	33.0185
H	14.3428	14.4232	33.7263
C	9.6716	17.4764	33.2332
H	9.1238	17.0995	33.9123
C	9.1759	18.5309	32.4934
H	14.5620	18.8790	32.6630
C	9.9817	19.0731	31.4866
C	14.1966	23.9285	30.3605
C	9.4635	20.2103	30.6328
Ni	15.4084	9.4421	8.6245
O	13.9250	4.3784	4.0368
O	17.1416	1.6666	3.8035
O	18.2507	4.4111	5.1094
O	12.8135	1.5003	4.8721
N	16.2733	10.5560	7.1530
N	14.6007	8.0914	7.3471
C	16.0641	12.0137	5.2748
H	15.5322	12.3506	4.5628
C	17.3439	12.4984	5.4834
C	18.0954	11.9548	6.5283
H	12.7340	12.2454	6.6834
C	14.9310	6.5009	5.5902
H	15.4926	6.1490	4.9091
C	15.3673	7.5541	6.3875
H	16.2384	7.9060	6.2457
C	15.5685	11.0319	6.1132
H	14.7005	10.6825	5.9498
C	17.5236	10.9918	7.3328
H	18.0382	10.6236	8.0407
C	13.3670	7.5704	7.5475
H	12.8192	7.9473	8.2266
C	12.8713	6.5159	6.8077
H	18.2574	6.1678	6.9773
C	13.6771	5.9737	5.8009
C	17.8920	1.1183	4.6748
C	13.1589	4.8365	4.9471
Ni	18.4210	-9.4421	13.7617
O	16.9376	-4.3784	9.1739
O	20.1542	-1.6666	8.9407
O	21.2633	-4.4111	10.2465
O	15.8261	-1.5003	10.0092
N	19.2859	-10.5560	12.2901
N	17.6133	-8.0914	12.4843
C	19.0768	-12.0137	10.4120
H	18.5448	-12.3506	9.6999
C	20.3565	-12.4984	10.6205
C	21.1080	-11.9548	11.6654
H	15.7466	-12.2454	11.8206
C	17.9436	-6.5009	10.7274
H	18.5052	-6.1490	10.0462
C	18.3799	-7.5541	11.5247
H	19.2510	-7.9060	11.3829
C	18.5811	-11.0319	11.2503
H	17.7131	-10.6825	11.0870
C	20.5362	-10.9918	12.4699
H	21.0508	-10.6236	13.1778
C	16.3796	-7.5704	12.6846
H	15.8318	-7.9473	13.3638
C	15.8839	-6.5159	11.9449
H	21.2700	-6.1678	12.1144
C	16.6897	-5.9737	10.9380
C	20.9046	-1.1183	9.8119
C	16.1715	-4.8365	10.0842
Ni	15.1808	9.4421	18.8988
O	13.6974	4.3784	14.3110
O	16.9140	1.6666	14.0778
O	18.0231	4.4111	15.3837
O	12.5859	1.5003	15.1463
N	16.0457	10.5560	17.4272
N	14.3731	8.0914	17.6214
C	15.8366	12.0137	15.5491
H	15.3046	12.3506	14.8371
C	17.1163	12.4984	15.7577
C	17.8678	11.9548	16.8026
H	12.5064	12.2454	16.9577
C	14.7034	6.5009	15.8645
H	15.2650	6.1490	15.1833
C	15.1397	7.5541	16.6618
H	16.0108	7.9060	16.5200
C	15.3409	11.0319	16.3875
H	14.4729	10.6825	16.2241
C	17.2960	10.9918	17.6070
H	17.8106	10.6236	18.3149
C	13.1394	7.5704	17.8218
H	12.5916	7.9473	18.5009
C	12.6437	6.5159	17.0820
H	18.0298	6.1678	17.2515
C	13.4495	5.9737	16.0751
C	17.6644	1.1183	14.9491
C	12.9313	4.8365	15.2213
Ni	18.1934	-9.4421	24.0360
O	16.7100	-4.3784	19.4482
O	19.9266	-1.6666	19.2150
O	21.0357	-4.4111	20.5208
O	15.5985	-1.5003	20.2835
N	19.0583	-10.5560	22.5644
N	17.3857	-8.0914	22.7586
C	18.8492	-12.0137	20.6862
H	18.3172	-12.3506	19.9742
C	20.1289	-12.4984	20.8948
C	20.8804	-11.9548	21.9397
H	15.5190	-12.2454	22.0948
C	17.7160	-6.5009	21.0017
H	18.2776	-6.1490	20.3205
C	18.1523	-7.5541	21.7989
H	19.0234	-7.9060	21.6572
C	18.3535	-11.0319	21.5246
H	17.4855	-10.6825	21.3613
C	20.3086	-10.9918	22.7442
H	20.8232	-10.6236	23.4521
C	16.1520	-7.5704	22.9589
H	15.6042	-7.9473	23.6380
C	15.6563	-6.5159	22.2192
H	21.0424	-6.1678	22.3887
C	16.4621	-5.9737	21.2123
C	20.6770	-1.1183	20.0862
C	15.9439	-4.8365	20.3585
Ni	14.9532	9.4421	29.1731
O	13.4698	4.3784	24.5853
O	16.6864	1.6666	24.3521
O	17.7955	4.4111	25.6580
O	12.3583	1.5003	25.4206
N	15.8181	10.5560	27.7015
N	14.1455	8.0914	27.8957
C	15.6090	12.0137	25.8234
H	15.0770	12.3506	25.1114
C	16.8887	12.4984	26.0319
C	17.6402	11.9548	27.0768
H	12.2788	12.2454	27.2320
C	14.4758	6.5009	26.1388
H	15.0374	6.1490	25.4576
C	14.9121	7.5541	26.9361
H	15.7832	7.9060	26.7943
C	15.1133	11.0319	26.6618
H	14.2453	10.6825	26.4984
C	17.0684	10.9918	27.8813
H	17.5830	10.6236	28.5892
C	12.9118	7.5704	28.0960
H	12.3640	7.9473	28.7752
C	12.4161	6.5159	27.3563
H	17.8022	6.1678	27.5258
C	13.2219	5.9737	26.3494
C	17.4368	1.1183	25.2234
C	12.7037	4.8365	25.4956
Ni	17.9659	-9.4421	34.3102
O	16.4824	-4.3784	29.7225
O	19.6990	-1.6666	29.4892
O	20.8081	-4.4111	30.7951
O	15.3709	-1.5003	30.5578
N	18.8307	-10.5560	32.8387
N	17.1581	-8.0914	33.0328
C	18.6216	-12.0137	30.9605
H	18.0896	-12.3506	30.2485
C	19.9013	-12.4984	31.1691
C	20.6528	-11.9548	32.2140
H	15.2914	-12.2454	32.3691
C	17.4884	-6.5009	31.2759
H	18.0500	-6.1490	30.5947
C	17.9247	-7.5541	32.0732
H	18.7958	-7.9060	31.9314
C	18.1259	-11.0319	31.7989
H	17.2579	-10.6825	31.6355
C	20.0810	-10.9918	33.0185
H	20.5956	-10.6236	33.7263
C	15.9244	-7.5704	33.2332
H	15.3766	-7.9473	33.9123
C	15.4287	-6.5159	32.4934
H	20.8148	-6.1678	32.6630
C	16.2345	-5.9737	31.4866
C	20.4494	-1.1183	30.3605
C	15.7163	-4.8365	30.6328
Ni	15.4084	21.9655	8.6245
O	13.9250	16.9018	4.0368
O	17.1416	14.1900	3.8035
O	18.2507	16.9345	5.1094
O	12.8135	14.0237	4.8721
N	16.2733	23.0794	7.1530
N	14.6007	20.6148	7.3471
C	16.0641	24.5371	5.2748
H	15.5322	24.8740	4.5628
C	17.3439	25.0218	5.4834
C	18.0954	24.4782	6.5283
H	12.7340	24.7688	6.6834
C	14.9310	19.0243	5.5902
H	15.4926	18.6724	4.9091
C	15.3673	20.0775	6.3875
H	16.2384	20.4294	6.2457
C	15.5685	23.5553	6.1132
H	14.7005	23.2059	5.9498
C	17.5236	23.5152	7.3328
H	18.0382	23.1470	8.0407
C	13.3670	20.0938	7.5475
H	12.8192	20.4707	8.2266
C	12.8713	19.0393	6.8077
H	18.2574	18.6912	6.9773
C	13.6771	18.4971	5.8009
C	17.8920	13.6417	4.6748
C	13.1589	17.3599	4.9471
Ni	18.4210	3.0813	13.7617
O	16.9376	8.1450	9.1739
O	20.1542	10.8568	8.9407
O	21.2633	8.1123	10.2465
O	15.8261	11.0231	10.0092
N	19.2859	1.9674	12.2901
N	17.6133	4.4320	12.4843
C	19.0768	0.5097	10.4120
H	18.5448	0.1728	9.6999
C	20.3565	0.0250	10.6205
C	21.1080	0.5686	11.6654
H	15.7466	0.2780	11.8206
C	17.9436	6.0225	10.7274
H	18.5052	6.3744	10.0462
C	18.3799	4.9693	11.5247
H	19.2510	4.6174	11.3829
C	18.5811	1.4915	11.2503
H	17.7131	1.8409	11.0870
C	20.5362	1.5316	12.4699
H	21.0508	1.8998	13.1778
C	16.3796	4.9530	12.6846
H	15.8318	4.5761	13.3638
C	15.8839	6.0075	11.9449
H	21.2700	6.3556	12.1144
C	16.6897	6.5497	10.9380
C	20.9046	11.4051	9.8119
C	16.1715	7.6869	10.0842
Ni	15.1808	21.9655	18.8988
O	13.6974	16.9018	14.3110
O	16.9140	14.1900	14.0778
O	18.0231	16.9345	15.3837
O	12.5859	14.0237	15.1463
N	16.0457	23.0794	17.4272
N	14.3731	20.6148	17.6214
C	15.8366	24.5371	15.5491
H	15.3046	24.8740	14.8371
C	17.1163	25.0218	15.7577
C	17.8678	24.4782	16.8026
H	12.5064	24.7688	16.9577
C	14.7034	19.0243	15.8645
H	15.2650	18.6724	15.1833
C	15.1397	20.0775	16.6618
H	16.0108	20.4294	16.5200
C	15.3409	23.5553	16.3875
H	14.4729	23.2059	16.2241
C	17.2960	23.5152	17.6070
H	17.8106	23.1470	18.3149
C	13.1394	20.0938	17.8218
H	12.5916	20.4707	18.5009
C	12.6437	19.0393	17.0820
H	18.0298	18.6912	17.2515
C	13.4495	18.4971	16.0751
C	17.6644	13.6417	14.9491
C	12.9313	17.3599	15.2213
Ni	18.1934	3.0813	24.0360
O	16.7100	8.1450	19.4482
O	19.9266	10.8568	19.2150
O	21.0357	8.1123	20.5208
O	15.5985	11.0231	20.2835
N	19.0583	1.9674	22.5644
N	17.3857	4.4320	22.7586
C	18.8492	0.5097	20.6862
H	18.3172	0.1728	19.9742
C	20.1289	0.0250	20.8948
C	20.8804	0.5686	21.9397
H	15.5190	0.2780	22.0948
C	17.7160	6.0225	21.0017
H	18.2776	6.3744	20.3205
C	18.1523	4.9693	21.7989
H	19.0234	4.6174	21.6572
C	18.3535	1.4915	21.5246
H	17.4855	1.8409	21.3613
C	20.3086	1.5316	22.7442
H	20.8232	1.8998	23.4521
C	16.1520	4.9530	22.9589
H	15.6042	4.5761	23.6380
C	15.6563	6.0075	22.2192
H	21.0424	6.3556	22.3887
C	16.4621	6.5497	21.2123
C	20.6770	11.4051	20.0862
C	15.9439	7.6869	20.3585
Ni	14.9532	21.9655	29.1731
O	13.4698	16.9018	24.5853
O	16.6864	14.1900	24.3521
O	17.7955	16.9345	25.6580
O	12.3583	14.0237	25.4206
N	15.8181	23.0794	27.7015
N	14.1455	20.6148	27.8957
C	15.6090	24.5371	25.8234
H	15.0770	24.8740	25.1114
C	16.8887	25.0218	26.0319
C	17.6402	24.4782	27.0768
H	12.2788	24.7688	27.2320
C	14.4758	19.0243	26.1388
H	15.0374	18.6724	25.4576
C	14.9121	20.0775	26.9361
H	15.7832	20.4294	26.7943
C	15.1133	23.5553	26.6618
H	14.2453	23.2059	26.4984
C	17.0684	23.5152	27.8813
H	17.5830	23.1470	28.5892
C	12.9118	20.0938	28.0960
H	12.3640	20.4707	28.7752
C	12.4161	19.0393	27.3563
H	17.8022	18.6912	27.5258
C	13.2219	18.4971	26.3494
C	17.4368	13.6417	25.2234
C	12.7037	17.3599	25.4956
Ni	17.9659	3.0813	34.3102
O	16.4824	8.1450	29.7225
O	19.6990	10.8568	29.4892
O	20.8081	8.1123	30.7951
O	15.3709	11.0231	30.5578
N	18.8307	1.9674	32.8387
N	17.1581	4.4320	33.0328
C	18.6216	0.5097	30.9605
H	18.0896	0.1728	30.2485
C	19.9013	0.0250	31.1691
C	20.6528	0.5686	32.2140
H	15.2914	0.2780	32.3691
C	17.4884	6.0225	31.2759
H	18.0500	6.3744	30.5947
C	17.9247	4.9693	32.0732
H	18.7958	4.6174	31.9314
C	18.1259	1.4915	31.7989
H	17.2579	1.8409	31.6355
C	20.0810	1.5316	33.0185
H	20.5956	1.8998	33.7263
C	15.9244	4.9530	33.2332
H	15.3766	4.5761	33.9123
C	15.4287	6.0075	32.4934
H	20.8148	6.3556	32.6630
C	16.2345	6.5497	31.4866
C	20.4494	11.4051	30.3605
C	15.7163	7.6869	30.6328
Ni	15.4084	34.4889	8.6245
O	13.9250	29.4252	4.0368
O	17.1416	26.7134	3.8035
O	18.2507	29.4579	5.1094
O	12.8135	26.5471	4.8721
N	16.2733	35.6028	7.1530
N	14.6007	33.1382	7.3471
C	16.0641	37.0605	5.2748
H	15.5322	37.3974	4.5628
C	17.3439	37.5452	5.4834
C	18.0954	37.0016	6.5283
H	12.7340	37.2922	6.6834
C	14.9310	31.5477	5.5902
H	15.4926	31.1958	4.9091
C	15.3673	32.6009	6.3875
H	16.2384	32.9528	6.2457
C	15.5685	36.0787	6.1132
H	14.7005	35.7293	5.9498
C	17.5236	36.0386	7.3328
H	18.0382	35.6704	8.0407
C	13.3670	32.6172	7.5475
H	12.8192	32.9941	8.2266
C	12.8713	31.5627	6.8077
H	18.2574	31.2146	6.9773
C	13.6771	31.0205	5.8009
C	17.8920	26.1651	4.6748
C	13.1589	29.8833	4.9471
Ni	18.4210	15.6047	13.7617
O	16.9376	20.6684	9.1739
O	20.1542	23.3802	8.9407
O	21.2633	20.6357	10.2465
O	15.8261	23.5465	10.0092
N	19.2859	14.4908	12.2901
N	17.6133	16.9554	12.4843
C	19.0768	13.0331	10.4120
H	18.5448	12.6962	9.6999
C	20.3565	12.5484	10.6205
C	21.1080	13.0920	11.6654
H	15.7466	12.8014	11.8206
C	17.9436	18.5459	10.7274
H	18.5052	18.8978	10.0462
C	18.3799	17.4927	11.5247
H	19.2510	17.1408	11.3829
C	18.5811	14.0149	11.2503
H	17.7131	14.3643	11.0870
C	20.5362	14.0550	12.4699
H	21.0508	14.4232	13.1778
C	16.3796	17.4764	12.6846
H	15.8318	17.0995	13.3638
C	15.8839	18.5309	11.9449
H	21.2700	18.8790	12.1144
C	16.6897	19.0731	10.9380
C	20.9046	23.9285	9.8119
C	16.1715	20.2103	10.0842
Ni	15.1808	34.4889	18.8988
O	13.6974	29.4252	14.3110
O	16.9140	26.7134	14.0778
O	18.0231	29.4579	15.3837
O	12.5859	26.5471	15.1463
N	16.0457	35.6028	17.4272
N	14.3731	33.1382	17.6214
C	15.8366	37.0605	15.5491
H	15.3046	37.3974	14.8371
C	17.1163	37.5452	15.7577
C	17.8678	37.0016	16.8026
H	12.5064	37.2922	16.9577
C	14.7034	31.5477	15.8645
H	15.2650	31.1958	15.1833
C	15.1397	32.6009	16.6618
H	16.0108	32.9528	16.5200
C	15.3409	36.0787	16.3875
H	14.4729	35.7293	16.2241
C	17.2960	36.0386	17.6070
H	17.8106	35.6704	18.3149
C	13.1394	32.6172	17.8218
H	12.5916	32.9941	18.5009
C	12.6437	31.5627	17.0820
H	18.0298	31.2146	17.2515
C	13.4495	31.0205	16.0751
C	17.6644	26.1651	14.9491
C	12.9313	29.8833	15.2213
Ni	18.1934	15.6047	24.0360
O	16.7100	20.6684	19.4482
O	19.9266	23.3802	19.2150
O	21.0357	20.6357	20.5208
O	15.5985	23.5465	20.2835
N	19.0583	14.4908	22.5644
N	17.3857	16.9554	22.7586
C	18.8492	13.0331	20.6862
H	18.3172	12.6962	19.9742
C	20.1289	12.5484	20.8948
C	20.8804	13.0920	21.9397
H	15.5190	12.8014	22.0948
C	17.7160	18.5459	21.0017
H	18.2776	18.8978	20.3205
C	18.1523	17.4927	21.7989
H	19.0234	17.1408	21.6572
C	18.3535	14.0149	21.5246
H	17.4855	14.3643	21.3613
C	20.3086	14.0550	22.7442
H	20.8232	14.4232	23.4521
C	16.1520	17.4764	22.9589
H	15.6042	17.0995	23.6380
C	15.6563	18.5309	22.2192
H	21.0424	18.8790	22.3887
C	16.4621	19.0731	21.2123
C	20.6770	23.9285	20.0862
C	15.9439	20.2103	20.3585
Ni	14.9532	34.4889	29.1731
O	13.4698	29.4252	24.5853
O	16.6864	26.7134	24.3521
O	17.7955	29.4579	25.6580
O	12.3583	26.5471	25.4206
N	15.8181	35.6028	27.7015
N	14.1455	33.1382	27.8957
C	15.6090	37.0605	25.8234
H	15.0770	37.3974	25.1114
C	16.8887	37.5452	26.0319
C	17.6402	37.0016	27.0768
H	12.2788	37.2922	27.2320
C	14.4758	31.5477	26.1388
H	15.0374	31.1958	25.4576
C	14.9121	32.6009	26.9361
H	15.7832	32.9528	26.7943
C	15.1133	36.0787	26.6618
H	14.2453	35.7293	26.4984
C	17.0684	36.0386	27.8813
H	17.5830	35.6704	28.5892
C	12.9118	32.6172	28.0960
H	12.3640	32.9941	28.7752
C	12.4161	31.5627	27.3563
H	17.8022	31.2146	27.5258
C	13.2219	31.0205	26.3494
C	17.4368	26.1651	25.2234
C	12.7037	29.8833	25.4956
Ni	17.9659	15.6047	34.3102
O	16.4824	20.6684	29.7225
O	19.6990	23.3802	29.4892
O	20.8081	20.6357	30.7951
O	15.3709	23.5465	30.5578
N	18.8307	14.4908	32.8387
N	17.1581	16.9554	33.0328
C	18.6216	13.0331	30.9605
H	18.0896	12.6962	30.2485
C	19.9013	12.5484	31.1691
C	20.6528	13.0920	32.2140
H	15.2914	12.8014	32.3691
C	17.4884	18.5459	31.2759
H	18.0500	18.8978	30.5947
C	17.9247	17.4927	32.0732
H	18.7958	17.1408	31.9314
C	18.1259	14.0149	31.7989
H	17.2579	14.3643	31.6355
C	20.0810	14.0550	33.0185
H	20.5956	14.4232	33.7263
C	15.9244	17.4764	33.2332
H	15.3766	17.0995	33.9123
C	15.4287	18.5309	32.4934
H	20.8148	18.8790	32.6630
C	16.2345	19.0731	31.4866
C	20.4494	23.9285	30.3605
C	15.7163	20.2103	30.6328
