64

Ni	6.1430	3.0813	3.4874
Ni	2.6752	9.4421	18.8988
Ni	5.6878	3.0813	24.0360
Ni	2.2201	9.4421	39.4474
Ni	2.9028	21.9655	8.6246
Ni	5.9154	15.6047	13.7617
Ni	2.4476	21.9655	29.1731
Ni	5.4602	15.6047	34.3103
Ni	6.1430	28.1281	3.4874
Ni	2.6752	34.4889	18.8988
Ni	5.6878	28.1281	24.0360
Ni	2.2201	34.4889	39.4474
Ni	2.9028	47.0123	8.6246
Ni	5.9154	40.6515	13.7617
Ni	2.4476	47.0123	29.1731
Ni	5.4602	40.6515	34.3103
Ni	9.1556	9.4421	8.6246
Ni	12.1682	3.0813	13.7617
Ni	8.7004	9.4421	29.1731
Ni	11.7130	3.0813	34.3103
Ni	12.3958	15.6047	3.4874
Ni	8.9280	21.9655	18.8988
Ni	11.9406	15.6047	24.0360
Ni	8.4729	21.9655	39.4474
Ni	9.1556	34.4889	8.6246
Ni	12.1682	28.1281	13.7617
Ni	8.7004	34.4889	29.1731
Ni	11.7130	28.1281	34.3103
Ni	12.3958	40.6515	3.4874
Ni	8.9280	47.0123	18.8988
Ni	11.9406	40.6515	24.0360
Ni	8.4729	47.0123	39.4474
Ni	18.6486	3.0813	3.4874
Ni	15.1808	9.4421	18.8988
Ni	18.1934	3.0813	24.0360
Ni	14.7257	9.4421	39.4474
Ni	15.4084	21.9655	8.6246
Ni	18.4210	15.6047	13.7617
Ni	14.9532	21.9655	29.1731
Ni	17.9658	15.6047	34.3103
Ni	18.6486	28.1281	3.4874
Ni	15.1808	34.4889	18.8988
Ni	18.1934	28.1281	24.0360
Ni	14.7257	34.4889	39.4474
Ni	15.4084	47.0123	8.6246
Ni	18.4210	40.6515	13.7617
Ni	14.9532	47.0123	29.1731
Ni	17.9658	40.6515	34.3103
Ni	21.6612	9.4421	8.6246
Ni	24.6738	3.0813	13.7617
Ni	21.2060	9.4421	29.1731
Ni	24.2186	3.0813	34.3103
Ni	24.9014	15.6047	3.4874
Ni	21.4336	21.9655	18.8988
Ni	24.4462	15.6047	24.0360
Ni	20.9785	21.9655	39.4474
Ni	21.6612	34.4889	8.6246
Ni	24.6738	28.1281	13.7617
Ni	21.2060	34.4889	29.1731
Ni	24.2186	28.1281	34.3103
Ni	24.9014	40.6515	3.4874
Ni	21.4336	47.0123	18.8988
Ni	24.4462	40.6515	24.0360
Ni	20.9785	47.0123	39.4474
