172

Ni	2.1534	9.0267	8.8563
Ni	6.0964	3.9615	3.6564
O	0.0068	4.3400	4.0498
O	3.4606	7.9082	8.9450
O	4.6813	2.9361	3.7442
O	0.8160	10.1483	8.9868
O	5.6212	5.1405	4.9532
O	1.5866	7.8357	10.0831
O	-1.3033	2.2635	5.1578
O	2.6241	10.0931	10.2185
N	3.0320	10.2105	7.5987
N	-0.7469	2.2601	2.5859
N	1.3653	7.9622	7.4587
N	5.3088	5.0844	2.3273
C	3.2303	11.2305	5.4154
C	-0.6213	11.2553	0.5537
H	2.8842	11.2764	4.3946
H	6.7634	1.6542	9.6788
C	4.4417	1.5723	5.7832
C	0.7975	11.2147	0.6433
C	4.8105	1.4988	7.1219
C	1.3850	1.4030	1.8060
H	13.1833	2.1214	7.6372
H	2.4556	1.3255	1.9505
C	1.4414	6.4242	5.5957
C	5.1212	6.0271	0.1258
H	1.9703	6.0300	4.7484
H	12.8613	5.0426	9.6485
C	2.0788	7.3532	6.4586
C	5.9116	5.4414	1.1623
H	3.1160	7.5950	6.3067
C	2.4767	10.5179	6.3826
C	-1.3929	1.5973	1.5872
H	1.4846	10.1685	6.1336
H	5.4474	2.6904	0.8538
C	4.2915	10.7237	7.9028
C	0.5830	1.9710	2.8051
H	1.0431	2.2455	3.7410
C	0.0594	7.6071	7.6518
C	4.0384	5.5316	2.5974
H	3.5694	5.2542	3.5231
C	-0.5308	6.5723	6.9224
C	3.3319	6.3324	1.6894
H	6.4116	5.8304	7.4687
H	2.4180	6.8208	1.9988
C	0.1116	6.0294	5.8457
C	3.8046	6.4722	0.3937
C	5.2763	2.3052	4.7487
C	1.4075	10.6845	10.0412
C	-0.6143	5.0733	4.9566
C	2.8018	7.2457	9.8806
Ni	10.0425	8.7866	9.1263
Ni	-1.5238	3.4968	3.8444
O	7.4723	5.0068	3.7876
O	11.5959	7.9427	9.2083
O	12.8250	2.6494	3.8886
O	8.4925	9.6192	9.3031
O	13.9824	4.6916	5.1016
O	9.7845	7.5486	10.3993
O	6.5329	2.8208	4.9591
O	10.5929	9.9877	-0.1130
N	10.6690	10.0953	7.7772
N	6.9726	2.7767	2.3386
N	9.3411	7.5392	7.8095
N	13.7929	4.8056	2.4429
C	11.2251	10.7020	5.4750
C	7.2759	1.6757	0.1888
H	11.0451	10.5819	4.4174
H	-1.3566	10.8019	10.2500
C	12.3346	1.2046	5.9006
C	8.4912	11.3446	0.6114
C	12.4214	1.4509	7.2635
C	8.9284	1.3901	1.8837
H	5.6827	2.0386	7.4672
H	9.8632	11.2767	2.2491
C	9.1448	6.5248	5.6301
C	13.1114	5.3447	0.1502
H	9.5932	6.2472	4.6876
H	5.3246	6.2196	9.6969
C	9.9583	7.1082	6.6714
C	14.0523	4.7345	1.0817
C	10.3078	10.1188	6.4512
C	6.4428	2.3777	1.1378
C	11.6998	10.9194	8.1766
C	8.2999	2.4490	2.5845
H	12.1488	10.7437	9.1311
C	8.1196	6.9958	8.1227
C	12.8274	5.7092	2.8518
H	7.6638	7.2469	9.0585
H	12.3602	5.5652	3.7990
C	7.3612	6.2649	7.1840
C	12.1604	6.5777	1.9552
H	-1.5322	6.2754	7.1415
H	11.4684	7.3129	2.3449
C	7.7807	6.2072	5.8780
C	12.1783	6.3207	0.5972
C	13.2924	1.9027	4.8952
C	9.0570	10.3692	10.2464
C	6.8940	5.6439	4.7779
C	11.0721	7.1577	10.1588
N	5.2715	9.8712	8.5076
C	5.6565	8.7473	7.6550
H	5.0117	8.6373	6.7602
H	6.6640	8.9002	7.2649
H	5.6263	7.8152	8.2215
C	5.3310	9.7161	9.9737
H	6.3634	9.5501	10.2887
H	5.1456	10.6010	-0.0497
H	4.8451	8.8354	10.3880
N	13.1006	1.3473	1.6998
C	12.3352	2.1022	0.7068
H	12.6155	2.1845	10.2698
H	11.3156	1.7399	0.5916
H	12.1874	3.1097	1.0720
C	12.7907	10.1959	1.7931
H	13.4844	9.6872	2.4990
H	11.7706	10.0519	2.1947
H	12.8639	9.7110	0.8049
N	-0.7565	8.4249	8.4702
C	-1.6103	9.2912	7.6636
H	-1.2913	9.3591	6.5972
H	13.2504	8.9401	7.6962
H	-1.5276	10.3105	8.0696
C	-1.4321	7.7030	9.5334
H	13.7411	7.0238	9.0794
H	-0.7209	7.1150	10.1349
H	-1.9259	8.4118	10.2167
N	7.3388	5.5770	1.1474
C	7.9946	4.9971	-0.0369
H	8.2801	3.9673	0.1656
H	7.1121	4.9542	9.6051
H	8.7201	5.4805	10.2693
C	7.7278	6.9515	1.5009
H	7.5769	7.6456	0.6560
H	7.1227	7.3324	2.3536
H	8.7767	6.9729	1.8500
N	8.9272	9.8596	6.1074
C	8.0483	10.9601	6.5442
H	7.6550	10.7850	7.5462
H	8.5633	1.6504	6.6531
H	7.1651	11.0264	5.8919
C	8.6693	9.4318	4.7184
H	9.5038	8.8308	4.3031
H	7.7485	8.8135	4.6925
H	8.4922	10.2913	4.0544
N	9.1314	3.3825	3.2824
C	10.1087	4.0952	2.4664
H	10.0380	3.8559	1.3921
H	11.1193	3.8325	2.7748
H	9.9581	5.1786	2.6009
C	9.5653	2.9866	4.6136
H	10.6277	3.1918	4.8003
H	9.4068	1.9216	4.7267
H	8.9854	3.5390	5.3775
N	11.3661	6.8280	6.7155
C	12.0889	7.4407	5.5903
H	11.4983	7.4577	4.6570
H	13.0619	6.9589	5.4144
H	12.3385	8.4758	5.8221
C	11.5817	5.3767	6.8527
H	11.5097	4.8743	5.8729
H	10.8404	4.9178	7.5463
H	12.5672	5.1659	7.2951
N	-0.5776	4.2011	0.6161
C	-0.7176	3.8881	9.7100
H	-1.5356	3.2180	9.3940
H	-0.7438	4.8105	9.0956
H	0.2365	3.3595	9.4983
C	0.5644	5.0069	1.0683
H	0.2749	5.8029	1.7902
H	1.3000	4.3436	1.5631
H	1.0812	5.4936	0.2197
