172
Atoms. Timestep: 0
Ni 2.89857 9.41116 8.59265
Ni 6.17525 3.10579 3.48481
O 1.44827 4.35425 3.93374
O 4.4416 8.15245 9.05464
O 4.63665 1.84729 3.87523
O 1.36499 10.6744 9.00295
O 5.80609 4.46033 4.96242
O 2.54244 8.0327 10.0675
O 0.25117 1.69264 4.94273
O 3.23722 10.8047 10.0626
N 3.69677 10.6606 7.2416
N 0.71256 1.8642 2.11704
N 2.17217 8.14409 7.25198
N 5.44023 4.39481 2.13747
C 3.48546 12.1483 5.36301
C 0.47488 0.38955 0.2292
H 2.86453 12.5181 4.55267
H 5.86971 0.03371 9.69377
C 4.76073 0.1474 5.61481
C 1.74333 12.3699 0.47412
C 5.50345 12.1502 6.68209
C 2.49852 0.35508 1.54004
H 0.24768 12.5084 6.91993
H 3.49155 12.5067 1.77336
C 2.48363 6.6337 5.40822
C 5.72803 5.90364 0.28669
H 3.13294 6.27291 4.61605
H -0.10828 6.26667 9.7662
C 2.92756 7.68099 6.23068
C 6.1883 4.86756 1.11596
H 3.89994 8.14655 6.0889
C 2.98256 11.1359 6.19748
C -0.01036 1.40553 1.07106
H 1.99392 10.709 6.04703
H 5.26093 1.85011 0.92351
C 4.93641 11.1381 7.47507
C 1.94823 1.3719 2.3406
H 2.50886 1.79214 3.17267
C 0.94573 7.62654 7.47302
C 4.21083 4.90458 2.35686
H 3.63605 4.47744 3.17528
C 0.43859 6.57577 6.69176
C 3.68763 5.945 1.56944
H 5.70774 6.17693 6.91975
H 2.69824 6.32683 1.80071
C 1.22745 6.06471 5.65205
C 4.46338 6.45777 0.52027
C 5.3126 1.24381 4.79419
C 2.0502 11.2675 9.92158
C 0.73548 4.94016 4.83586
C 3.73174 7.56629 9.95688
Ni 9.15137 9.41116 8.59265
Ni 12.4281 3.10579 3.48481
O 7.70109 4.35425 3.93374
O 10.6944 8.15245 9.05464
O 10.8895 1.84729 3.87523
O 7.61779 10.6744 9.00295
O 12.0589 4.46033 4.96242
O 8.79524 8.0327 10.0675
O 6.50397 1.69264 4.94273
O 9.49002 10.8047 10.0626
N 9.94957 10.6606 7.2416
N 6.96536 1.8642 2.11704
N 8.42499 8.14409 7.25198
N 11.693 4.39481 2.13747
C 9.73826 12.1483 5.36301
C 6.72768 0.38955 0.2292
H 9.11733 12.5181 4.55267
H 12.1225 0.03371 9.69377
C 11.0135 0.1474 5.61481
C 7.99613 12.3699 0.47412
C 11.7562 12.1502 6.68209
C 8.75132 0.35508 1.54004
H 6.50047 12.5084 6.91993
H 9.74435 12.5067 1.77336
C 8.73644 6.6337 5.40822
C 11.9808 5.90364 0.28669
H 9.38574 6.27291 4.61605
H 6.14452 6.26667 9.7662
C 9.18036 7.68099 6.23068
C 12.4411 4.86756 1.11596
C 9.23536 11.1359 6.19748
C 6.24244 1.40553 1.07106
C 11.1892 11.1381 7.47507
C 8.20102 1.3719 2.3406
H 11.7384 10.7097 8.30944
C 7.19853 7.62654 7.47302
C 10.4636 4.90458 2.35686
H 6.61608 8.05184 8.28732
H 9.88885 4.47744 3.17528
C 6.69139 6.57577 6.69176
C 9.94043 5.945 1.56944
H 11.9605 6.17693 6.91975
H 8.95104 6.32683 1.80071
C 7.48025 6.06471 5.65205
C 10.7162 6.45777 0.52027
C 11.5654 1.24381 4.79419
C 8.303 11.2675 9.92158
C 6.98827 4.94016 4.83586
C 9.98454 7.56629 9.95688
N 5.66676 10.5804 8.64199
C 5.56751 9.16569 8.96505
H 5.03088 8.58999 8.18293
H 6.58677 8.73255 9.04466
H 5.04188 9.03393 9.93477
C 6.34398 11.4367 9.60262
H 6.26886 12.5105 9.33325
H 6.09091 11.3267 0.3233
H 7.40886 11.1373 9.70216
N 11.1451 1.98641 0.87487
C 10.9125 3.40384 1.10366
H 11.8537 3.96295 1.28454
H 10.4378 3.85012 0.20462
H 10.2375 3.54174 1.9751
C 9.9794 1.15061 0.63526
H 10.2384 0.07269 0.58968
H 9.26291 1.26764 1.47551
H 9.23831 1.46406 9.97593
N 0.17053 8.1827 8.60906
C 0.20883 9.60735 8.89965
H 0.74039 10.1847 8.11532
H 11.678 10.0027 8.94707
H 0.70749 9.78198 9.87681
C 12.0108 7.3237 9.57565
H 12.1326 6.24762 9.33411
H 0.18683 7.47547 0.30333
H 10.9334 7.58422 9.64526
N 7.53689 4.27888 0.93528
C 7.75301 2.85516 1.13983
H 6.80378 2.30075 1.29051
H 8.24199 2.42295 0.24155
H 8.40915 2.69383 2.02156
C 8.71409 5.10913 0.73599
H 8.46501 6.18998 0.70717
H 9.41255 4.96893 1.58781
H 9.01603 4.81008 10.0809
N 7.91585 10.5112 5.93921
C 7.05257 10.1285 7.04548
H 7.43594 10.4848 8.02383
H 6.0492 10.5829 6.90533
H 6.94739 9.02318 7.0799
C 7.51643 10.089 4.60614
H 8.28884 10.3204 3.84394
H 7.38097 8.98694 4.5936
H 6.54776 10.5559 4.32823
N 8.94596 1.91723 3.50386
C 8.86525 3.33194 3.83194
H 8.32987 3.9162 3.05534
H 9.88995 3.75306 3.90578
H 8.34791 3.46668 4.80569
C 9.61992 1.0501 4.45713
H 9.53058 12.5016 4.18498
H 9.14746 1.16251 5.45573
H 10.6888 1.33701 4.55015
N 10.517 8.29341 6.04502
C 10.7076 9.72172 6.24289
H 9.74872 10.2594 6.39323
H 11.1867 10.1588 5.34168
H 11.3625 9.89883 7.12248
C 11.7087 7.48387 5.84676
H 11.4793 6.39856 5.82318
H -0.0993 7.6405 6.69644
H 12.2308 7.78845 4.91496
N 1.28409 4.27887 0.93529
C 1.5002 2.85515 1.13983
H 0.55097 2.30074 1.29051
H 1.98918 2.42294 0.24155
H 2.15634 2.69382 2.02156
C 2.46129 5.10911 0.73599
H 2.21222 6.18995 0.70717
H 3.15975 4.96891 1.58781
H 2.76324 4.81005 10.0809
172
Atoms. Timestep: 435
Ni 3.46416 9.82467 8.65518
Ni 6.11565 3.38966 3.45768
O 1.94116 3.99825 4.22776
O 4.98756 8.88698 8.66117
O 4.65885 2.37972 3.32205
O 1.9625 10.7243 9.03388
O 5.44661 4.51927 4.70371
O 3.1725 8.59034 9.88808
O 0.896364 1.65051 5.26111
O 3.93596 10.9664 9.99265
N 3.9432 11.2018 7.24605
N 1.12171 1.81367 2.55822
N 2.73987 8.53112 7.24131
N 5.69249 4.76637 1.98165
C 5.00736 11.685 5.10316
C 0.895506 0.258181 0.667816
H 5.522 11.2888 4.23823
H 6.14566 0.298743 9.61592
C 4.53786 0.487523 5.09432
C 2.2256 12.3354 0.787532
C 3.64314 0.824082 6.06102
C 2.93396 0.299253 1.88435
H 10.8365 1.38502 7.63175
H 3.90688 12.4103 2.12015
C 2.92547 6.81899 5.42896
C 5.10268 5.64614 10.0004
H 3.30851 6.59161 4.45284
H 11.4868 5.07451 9.80499
C 3.43356 7.98553 6.15603
C 5.8959 4.63595 0.598501
H 4.36321 8.39597 5.8385
C 4.84039 10.869 6.26538
C 0.333993 1.23391 1.59224
H 5.48017 10.0261 6.41231
H 5.42244 2.08037 0.874674
C 3.38052 12.4955 7.16568
C 2.3263 1.22769 2.78701
H 2.70766 1.31681 3.75246
C 1.65534 7.84665 7.64857
C 5.38918 6.06624 2.41097
H 5.15953 6.282 3.42062
C 1.39592 6.47631 7.20563
C 5.33213 7.17245 1.53717
H 5.45814 6.20667 7.02729
H 5.16363 8.16009 1.95071
C 1.91928 5.99057 5.98747
C 5.21826 6.98148 0.174862
C 5.21731 1.61949 4.31539
C 2.62084 11.2914 10.0715
C 1.35274 4.64168 5.26987
C 4.36096 8.09207 9.59571
Ni 9.01677 9.19271 9.08123
Ni 0.439303 2.97391 4.05693
O 7.50556 4.39468 3.87835
O 10.47 8.17331 9.35536
O 11.5006 1.94036 4.22443
O 7.48879 10.2097 9.20906
O 0.102237 4.09402 5.45291
O 8.79428 7.94664 0.120203
O 6.31759 2.20472 4.75176
O 9.58684 10.3654 0.118076
N 9.81036 10.5843 7.64774
N 7.04885 2.08291 2.21732
N 8.36302 7.90331 7.66719
N 12.1061 4.34436 2.7764
C 11.228 11.2005 5.66794
C 6.82196 0.507658 0.289688
H 11.8146 10.8256 4.84537
H 0.0163029 12.2982 10.223
C 11.4026 0.033182 6.05486
C 7.7574 12.1265 0.790506
C 10.7588 0.370674 7.26354
C 8.1618 12.3931 2.10208
H 3.32112 1.8565 6.1007
H 8.43478 11.5608 2.6976
C 8.47164 6.56351 5.63194
C 11.6945 5.32917 0.564358
H 9.03874 6.16554 4.8303
H 4.82785 5.39944 8.98884
C 9.13029 7.22236 6.72886
C 0.028911 4.574 1.49424
C 10.1948 10.3411 6.30138
C 6.34349 1.60905 1.11691
C 10.0602 11.9013 8.07211
C 7.99587 1.17878 2.73298
H 9.70461 12.2376 9.0162
C 7.11078 7.38648 7.85324
C 11.0501 5.13001 3.21041
H 6.7347 7.40326 8.83248
H 10.6787 4.97441 4.19871
C 6.47132 6.54224 6.87387
C 10.4229 6.15972 2.37551
H 0.783322 5.82905 7.78598
H 9.57266 6.69139 2.75004
C 7.18882 6.09899 5.7554
C 10.7631 6.31446 1.01712
C 12.1374 1.14449 5.11191
C 8.32906 10.8662 -0.0290268
C 6.70883 4.99663 4.79499
C 10.0627 7.44281 0.0307513
N 2.84551 0.617526 8.31895
C 3.76636 1.64649 8.80411
H 4.80924 1.42061 8.5351
H 3.56364 2.6526 8.37349
H 3.66292 1.67613 9.89061
C 1.51965 1.17853 8.03991
H 1.56653 2.10004 7.42875
H 0.880322 0.392837 7.61427
H 1.03785 1.51429 8.94825
N 11.4502 1.18453 1.82205
C 10.668 1.76043 0.722681
H 11.0303 1.90789 10.066
H 9.78465 1.16441 0.469222
H 10.3156 2.74606 1.06552
C 11.1025 12.3646 2.30696
H 10.445 -0.0626713 3.17352
H 10.6831 11.7528 1.51317
H 11.9729 11.7959 2.70945
N 0.891706 8.45803 8.66713
C -0.0595495 9.43533 8.16518
H 0.404578 10.0909 7.3975
H 11.6432 8.93108 7.67337
H 12.0678 10.067 8.9987
C 0.524626 7.62502 9.77336
H 12.3325 6.92579 9.35033
H 1.37997 7.04928 10.133
H 0.357557 8.23364 0.339759
N 7.04892 3.9047 0.110694
C 6.82265 3.59427 8.93919
H 5.80871 3.39212 8.55909
H 7.24806 4.42599 8.34334
H 7.43702 2.68687 8.75811
C 8.28159 4.57022 0.504705
H 8.18512 5.65256 0.340465
H 8.4837 4.37007 1.57246
H 8.91597 4.19892 10.1909
N 9.37486 9.49227 5.43778
C 7.93333 9.80643 5.4622
H 7.661 10.4525 6.32082
H 7.58231 10.244 4.50857
H 7.33484 8.88644 5.51355
C 9.83214 9.3572 4.03583
H 10.8803 9.02133 3.94493
H 9.17007 8.65798 3.49089
H 9.80737 10.3109 3.51796
N 8.54607 1.33368 4.0892
C 9.04824 2.54764 4.72684
H 9.48586 3.20009 3.96045
H 9.76706 2.3074 5.52424
H 8.3282 3.01011 5.41679
C 8.22337 0.291527 5.03886
H 8.13398 0.64163 6.09033
H 8.995 12.0712 4.94177
H 7.28946 12.3674 4.76168
N 10.4718 6.81759 7.0287
C 11.3311 7.07965 5.84539
H 11.9683 6.25761 5.62132
H 11.9495 7.98239 5.91775
H 10.8061 7.18451 4.90574
C 10.4198 5.37262 7.36856
H 9.71428 5.1944 8.20706
H 11.3989 4.97739 7.66085
H 10.0947 4.74383 6.51278
N 1.39205 4.27585 1.16206
C 1.40611 3.93217 10.0401
H 0.49968 3.53171 9.54598
H 1.81001 4.77522 9.44997
H 2.38251 3.15018 -0.21394
C 2.36139 5.23256 1.71772
H 1.89548 5.97487 2.40321
H 3.12338 4.65928 2.2712
H 2.90911 5.78372 0.939907
172
Atoms. Timestep: 458
Ni 3.46738 9.82288 8.65418
Ni 6.10994 3.3838 3.46003
O 1.92667 3.99784 4.23168
O 4.9942 8.88632 8.6584
O 4.65682 2.374 3.32303
O 1.9651 10.7223 9.0339
O 5.44075 4.51732 4.70304
O 3.1848 8.59744 9.8949
O 0.886498 1.65387 5.2601
O 3.94245 10.9754 9.98178
N 3.93938 11.1923 7.23443
N 1.11645 1.81474 2.55898
N 2.74124 8.51976 7.24978
N 5.6846 4.75387 1.97986
C 5.00281 11.6765 5.0906
C 0.903071 0.273295 0.657234
H 5.52308 11.284 4.22648
H 6.11488 0.245718 9.65952
C 4.52852 0.475335 5.0832
C 2.23303 12.351 0.776977
C 3.61282 0.800148 6.03318
C 2.93999 0.31853 1.87274
H 10.8289 1.38662 7.64827
H 3.92326 12.4467 2.09682
C 2.92307 6.80567 5.44053
C 5.08819 5.63629 10.0009
H 3.32882 6.55701 4.48075
H 11.4783 5.05146 9.79561
C 3.42994 7.9752 6.16302
C 5.88231 4.6206 0.596913
H 4.35691 8.38875 5.84018
C 4.83702 10.8615 6.25401
C 0.337309 1.24749 1.58259
H 5.48053 10.0208 6.40003
H 5.416 2.0455 0.889035
C 3.36474 12.4807 7.14735
C 2.32268 1.23138 2.78573
H 2.70293 1.31857 3.74917
C 1.66037 7.83405 7.66772
C 5.3825 6.05267 2.40699
H 5.13292 6.26517 3.41138
C 1.38151 6.47404 7.20819
C 5.35445 7.16263 1.53622
H 5.48333 6.15862 7.05245
H 5.21692 8.15311 1.95362
C 1.90483 5.98754 5.99178
C 5.22555 6.97505 0.174019
C 5.21017 1.61497 4.3172
C 2.6266 11.2989 10.0647
C 1.33834 4.63847 5.27464
C 4.37086 8.0968 9.60045
Ni 9.02736 9.17969 9.08477
Ni 0.426957 2.97137 4.05807
O 7.49717 4.39342 3.87677
O 10.4747 8.14535 9.34917
O 11.4873 1.93564 4.22487
O 7.50912 10.2067 9.22167
O 0.0872495 4.09038 5.45483
O 8.79464 7.92808 0.110797
O 6.31029 2.20046 4.75918
O 9.60439 10.3383 0.137664
N 9.83086 10.5768 7.6632
N 7.04938 2.07516 2.23098
N 8.36482 7.90921 7.65941
N 12.0907 4.33604 2.77684
C 11.2445 11.207 5.68547
C 6.82398 0.481668 0.314456
H 11.8303 10.8427 4.85701
H 0.026001 12.316 10.2093
C 11.4003 0.0398791 6.06539
C 7.78183 12.1186 0.811785
C 10.7637 0.370437 7.28142
C 8.19224 12.3967 2.12431
H 3.26062 1.8227 6.0536
H 8.49867 11.5754 2.71796
C 8.46298 6.59562 5.60694
C 11.6772 5.30186 0.556968
H 9.01999 6.22475 4.7868
H 4.7714 5.38401 9.00273
C 9.12822 7.2441 6.70736
C 0.0108535 4.55071 1.49004
C 10.2125 10.3435 6.31339
C 6.34589 1.58939 1.13206
C 10.0955 11.8869 8.10038
C 8.00334 1.1802 2.75654
H 9.7863 12.2007 9.06633
C 7.11499 7.38491 7.84869
C 11.0302 5.12195 3.20462
H 6.74016 7.39925 8.82762
H 10.66 4.97685 4.19596
C 6.47672 6.53698 6.87266
C 10.4029 6.1442 2.36194
H 0.757976 5.83204 7.77936
H 9.55267 6.68609 2.73141
C 7.18357 6.11253 5.74191
C 10.7507 6.29201 1.00645
C 12.1271 1.14974 5.11893
C 8.12077 10.8493 10.2676
C 6.70308 4.99946 4.78967
C 10.0582 7.41451 0.0182279
N 2.8324 0.608375 8.29892
C 3.75341 1.6472 8.76697
H 4.80171 1.41125 8.51324
H 3.54409 2.64324 8.31648
H 3.65512 1.69966 9.85396
C 1.50011 1.15444 8.01535
H 1.53855 2.08284 7.41751
H 0.882268 0.363567 7.56883
H 0.998003 1.47821 8.91566
N 11.455 1.19596 1.80568
C 10.6805 1.75489 0.691096
H 11.055 1.90953 10.0426
H 9.80996 1.14446 0.431947
H 10.3001 2.73371 1.01978
C 11.1231 12.3697 2.28234
H 10.4766 12.4559 3.15799
H 10.7116 11.7626 1.48032
H 11.9975 11.8024 2.68234
N 0.898324 8.45005 8.68345
C -0.0554132 9.41429 8.16634
H 0.414055 10.067 7.39908
H 11.6569 8.89764 7.66849
H 12.0628 10.0503 8.99095
C 0.535489 7.62931 9.8025
H -0.139248 6.90447 9.38967
H 1.40139 7.08635 10.1856
H 0.337308 8.24025 0.352436
N 7.03887 3.89547 0.108875
C 6.81963 3.6042 8.93448
H 5.80715 3.40088 8.54989
H 7.24858 4.44461 8.35161
H 7.44166 2.70419 8.74212
C 8.26671 4.56679 0.512181
H 8.15417 5.65339 0.386764
H 8.48654 4.33611 1.57045
H 8.90092 4.22987 10.1767
N 9.38598 9.51162 5.44093
C 7.94912 9.84323 5.46593
H 7.6778 10.4804 6.33207
H 7.61337 10.3072 4.52002
H 7.3394 8.93099 5.51438
C 9.8543 9.38927 4.04044
H 10.8921 9.02389 3.95914
H 9.17756 8.73309 3.45795
H 9.88852 10.3571 3.55398
N 8.55865 1.35059 4.11493
C 9.04219 2.57588 4.74943
H 9.46602 3.22961 3.98143
H 9.77414 2.35984 5.5445
H 8.31312 3.0264 5.4396
C 8.23331 0.327819 5.08616
H 8.17067 0.698611 6.13406
H 8.99945 12.1029 4.99624
H 7.28574 12.4097 4.84008
N 10.4677 6.83406 7.00213
C 11.3337 7.07529 5.821
H 11.9453 6.23576 5.5975
H 11.9854 7.95481 5.90217
H 10.8144 7.19201 4.88061
C 10.4062 5.39829 7.36664
H 9.73513 5.25155 8.2377
H 11.3889 4.99248 7.62692
H 10.0397 4.76193 6.53323
N 1.37415 4.24967 1.15976
C 1.39471 3.94484 10.0287
H 0.511102 3.4955 9.53566
H 1.73419 4.8291 9.46078
H 2.19213 3.21182 10.0162
C 2.33755 5.20398 1.73278
H 1.86584 5.93811 2.42343
H 3.09996 4.62794 2.28174
H 2.88967 5.76903 0.968245
172
Atoms. Timestep: 463
Ni 3.46782 9.82277 8.65415
Ni 6.1097 3.38372 3.46022
O 1.92647 3.99667 4.23193
O 4.99437 8.88543 8.65927
O 4.65551 2.37337 3.32315
O 1.9652 10.7225 9.03391
O 5.44063 4.51882 4.70312
O 3.18435 8.59564 9.89478
O 0.885805 1.65517 5.26012
O 3.9428 10.9742 9.9826
N 3.93922 11.1913 7.23395
N 1.11725 1.81466 2.5593
N 2.74062 8.52 7.25048
N 5.68323 4.75314 1.98036
C 5.00416 11.676 5.09226
C 0.903436 0.272114 0.658027
H 5.52393 11.285 4.22885
H 6.11513 0.243898 9.65996
C 4.52883 0.474791 5.08372
C 2.23357 12.3498 0.777279
C 3.61236 0.798738 6.03228
C 2.94051 0.31806 1.8722
H 10.8279 1.38534 7.64819
H 3.92224 12.4464 2.09623
C 2.92254 6.80525 5.44056
C 5.08699 5.63518 10.0018
H 3.32874 6.55613 4.48039
H 11.4782 5.05195 9.79535
C 3.42929 7.97505 6.16355
C 5.88127 4.62057 0.597231
H 4.3561 8.38691 5.84135
C 4.83684 10.8595 6.25436
C 0.337746 1.24608 1.58385
H 5.4798 10.0198 6.40138
H 5.41347 2.0454 0.889684
C 3.36598 12.4804 7.1476
C 2.32394 1.23245 2.78422
H 2.70292 1.31861 3.74865
C 1.66068 7.83435 7.6684
C 5.38184 6.05304 2.40698
H 5.13298 6.2659 3.41103
C 1.3816 6.47504 7.20936
C 5.35407 7.16231 1.53628
H 5.48314 6.15831 7.05301
H 5.21871 8.15388 1.95289
C 1.90271 5.98835 5.99139
C 5.22582 6.97522 0.174096
C 5.20915 1.61488 4.31836
C 2.62671 11.2976 10.0657
C 1.33759 4.63736 5.27428
C 4.37167 8.09618 9.60144
Ni 9.02756 9.18084 9.08546
Ni 0.426998 2.97154 4.05783
O 7.49771 4.39457 3.87683
O 10.4745 8.14683 9.34942
O 11.4873 1.93592 4.22518
O 7.50838 10.2065 9.22346
O 0.0859836 4.08948 5.45334
O 8.79533 7.92894 0.111412
O 6.30913 2.20126 4.75923
O 9.6046 10.3403 0.137176
N 9.8323 10.578 7.66304
N 7.04891 2.07431 2.22929
N 8.36296 7.91002 7.65804
N 12.0915 4.33643 2.77678
C 11.245 11.2071 5.6847
C 6.82435 0.481266 0.313682
H 11.8305 10.8389 4.85707
H 0.0266986 12.3162 10.2089
C 11.4027 0.039585 6.06534
C 7.78169 12.118 0.81126
C 10.7647 0.370157 7.28104
C 8.19295 12.3967 2.12372
H 3.26216 1.82283 6.05415
H 8.49695 11.5754 2.7186
C 8.46093 6.59728 5.60524
C 11.677 5.30167 0.556959
H 9.01981 6.22616 4.78709
H 4.7711 5.38182 9.00269
C 9.12658 7.24392 6.70775
C 0.0108964 4.55132 1.49038
C 10.2134 10.3445 6.31329
C 6.34517 1.58818 1.13106
C 10.0978 11.8868 8.10009
C 8.00481 1.18096 2.75442
H 9.7886 12.1998 9.06565
C 7.11394 7.38493 7.84817
C 11.0306 5.12131 3.2048
H 6.74013 7.39772 8.82834
H 10.6605 4.97685 4.19608
C 6.47501 6.53781 6.87112
C 10.4041 6.14418 2.36275
H 0.754183 5.83697 7.77958
H 9.55572 6.68783 2.73338
C 7.18221 6.1132 5.74027
C 10.7501 6.29082 1.0068
C 12.1277 1.14934 5.11809
C 8.12158 10.8514 10.2673
C 6.7031 4.99964 4.79071
C 10.0582 7.41415 0.0177041
N 2.83447 0.608457 8.29805
C 3.75519 1.64693 8.76654
H 4.80209 1.40935 8.51279
H 3.54705 2.64245 8.31491
H 3.65562 1.69983 9.85291
C 1.50195 1.15445 8.01518
H 1.54064 2.08313 7.41755
H 0.882582 0.364197 7.57024
H 1.00082 1.48096 8.9158
N 11.4547 1.19676 1.80683
C 10.6798 1.7546 0.691378
H 11.0548 1.90778 10.0429
H 9.80873 1.14338 0.432224
H 10.3002 2.73435 1.01985
C 11.1218 12.3708 2.28318
H 10.4743 12.4579 3.1576
H 10.7107 11.7633 1.48085
H 11.9957 11.8023 2.68227
N 0.89834 8.44995 8.68415
C -0.0543458 9.41512 8.16672
H 0.413453 10.0674 7.39928
H 11.6591 8.89941 7.66804
H 12.0621 10.0508 8.99051
C 0.535271 7.62941 9.80353
H -0.138852 6.90421 9.39112
H 1.40082 7.08847 10.1881
H 0.337582 8.24053 0.353375
N 7.03853 3.89518 0.109351
C 6.81887 3.60398 8.93465
H 5.80642 3.40101 8.54918
H 7.24762 4.44478 8.35262
H 7.44077 2.70371 8.74339
C 8.26656 4.56609 0.512574
H 8.15371 5.65313 0.389107
H 8.48637 4.33275 1.57022
H 8.90041 4.22965 10.1765
N 9.38593 9.51348 5.44099
C 7.94784 9.84289 5.4659
H 7.67873 10.479 6.33439
H 7.6103 10.3041 4.51833
H 7.33766 8.92904 5.51225
C 9.85482 9.38932 4.04062
H 10.8937 9.02503 3.95914
H 9.17986 8.73231 3.45709
H 9.88756 10.3564 3.55297
N 8.55814 1.35273 4.11375
C 9.04273 2.57739 4.7486
H 9.46718 3.23059 3.98011
H 9.77525 2.36049 5.54288
H 8.31271 3.02653 5.44
C 8.23504 0.329381 5.08513
H 8.17149 0.698782 6.13346
H 9.00185 12.1042 4.99575
H 7.28699 12.4111 4.8396
N 10.4675 6.83484 7.0028
C 11.3331 7.07554 5.82132
H 11.9455 6.23611 5.59996
H 11.9845 7.9551 5.90234
H 10.8131 7.19052 4.88151
C 10.4053 5.39861 7.36606
H 9.73467 5.24995 8.23715
H 11.3874 4.99156 7.62569
H 10.0381 4.76382 6.53192
N 1.37376 4.24986 1.15867
C 1.39481 3.94585 10.0284
H 0.510991 3.49732 9.53581
H 1.73171 4.82908 9.46011
H 2.19545 3.21695 10.0153
C 2.33809 5.20239 1.7319
H 1.86508 5.93696 2.42324
H 3.10182 4.62519 2.28
H 2.89028 5.76681 0.966349
172
Atoms. Timestep: 465
Ni 3.46747 9.82283 8.6543
Ni 6.10956 3.38398 3.46013
O 1.92657 3.9967 4.23183
O 4.99442 8.8855 8.65907
O 4.65564 2.3734 3.32331
O 1.96534 10.7223 9.03397
O 5.44054 4.51851 4.70306
O 3.18449 8.59579 9.89477
O 0.886093 1.65505 5.26005
O 3.94284 10.9741 9.98256
N 3.9393 11.1913 7.23416
N 1.11747 1.81443 2.55907
N 2.74082 8.52001 7.25045
N 5.68328 4.75332 1.9801
C 5.0044 11.676 5.09214
C 0.903589 0.272093 0.65811
H 5.52408 11.2849 4.22889
H 6.11506 0.243779 9.65983
C 4.52867 0.475005 5.08384
C 2.23334 12.3499 0.777261
C 3.61235 0.798655 6.03235
C 2.94055 0.318098 1.87221
H 10.828 1.38552 7.64812
H 3.92239 12.4463 2.09625
C 2.92239 6.80518 5.44053
C 5.08689 5.63524 10.0015
H 3.32869 6.55612 4.48051
H 11.4782 5.05196 9.79526
C 3.42925 7.97493 6.16345
C 5.88136 4.62032 0.597577
H 4.3562 8.38693 5.84142
C 4.8368 10.8596 6.25436
C 0.337385 1.24627 1.58389
H 5.47982 10.0196 6.4014
H 5.41355 2.04513 0.889609
C 3.36592 12.4803 7.14764
C 2.32377 1.23263 2.78436
H 2.70302 1.31853 3.7486
C 1.66057 7.8343 7.66842
C 5.3818 6.05298 2.40714
H 5.13298 6.26592 3.41108
C 1.38136 6.47493 7.20939
C 5.35412 7.16237 1.53614
H 5.483 6.15818 7.05294
H 5.21881 8.15386 1.95291
C 1.90293 5.98842 5.99131
C 5.22585 6.975 0.174184
C 5.20919 1.61493 4.31815
C 2.62669 11.2976 10.0656
C 1.33733 4.6376 5.27462
C 4.37149 8.09596 9.60156
Ni 9.02758 9.18078 9.08543
Ni 0.426729 2.9717 4.058
O 7.49753 4.39441 3.87678
O 10.4745 8.14649 9.34954
O 11.4874 1.93578 4.22501
O 7.50858 10.2068 9.22335
O 0.0861142 4.0895 5.45338
O 8.79523 7.92888 0.111408
O 6.30931 2.20115 4.75931
O 9.60475 10.3404 0.137245
N 9.83199 10.5779 7.66316
N 7.04887 2.07414 2.22917
N 8.3631 7.91001 7.65838
N 12.0916 4.33631 2.77655
C 11.2451 11.2068 5.68459
C 6.82422 0.481364 0.313758
H 11.8306 10.839 4.85714
H 0.0266815 12.3162 10.2088
C 11.4026 0.0397145 6.06545
C 7.78191 12.1179 0.811443
C 10.7647 0.36993 7.28099
C 8.19274 12.397 2.12358
H 3.26225 1.82273 6.05413
H 8.49687 11.5753 2.71863
C 8.46088 6.59731 5.60548
C 11.677 5.30151 0.557301
H 9.01975 6.22614 4.78697
H 4.77108 5.38183 9.00282
C 9.12648 7.24411 6.70748
C 0.0104771 4.55141 1.49031
C 10.2132 10.3445 6.31321
C 6.3451 1.5884 1.13133
C 10.098 11.8869 8.09992
C 8.00461 1.18133 2.75459
H 9.78873 12.1999 9.06576
C 7.11396 7.38496 7.84805
C 11.0307 5.12134 3.20473
H 6.74012 7.39759 8.82829
H 10.6606 4.97686 4.19613
C 6.47508 6.538 6.8713
C 10.4041 6.14413 2.3629
H 0.753985 5.83701 7.77947
H 9.55586 6.68795 2.73344
C 7.18227 6.11349 5.74032
C 10.7501 6.29101 1.00645
C 12.1277 1.14933 5.1181
C 8.12135 10.8512 10.267
C 6.7031 4.99969 4.79061
C 10.0582 7.41453 0.0175504
N 2.83415 0.608447 8.29815
C 3.75534 1.64687 8.7665
H 4.80228 1.40929 8.51281
H 3.54718 2.64245 8.3148
H 3.65563 1.69986 9.85288
C 1.50221 1.15444 8.01533
H 1.54074 2.08316 7.41748
H 0.882631 0.364229 7.57033
H 1.001 1.48103 8.91586
N 11.4547 1.19662 1.80664
C 10.6799 1.75459 0.69146
H 11.0548 1.9077 10.043
H 9.80878 1.14342 0.432275
H 10.3002 2.73431 1.01979
C 11.1218 12.3708 2.28321
H 10.4742 12.458 3.15764
H 10.7107 11.7634 1.48089
H 11.9955 11.8023 2.68234
N 0.898475 8.45004 8.68422
C -0.0544665 9.41523 8.16671
H 0.413563 10.0675 7.39929
H 11.659 8.89938 7.66801
H 12.0621 10.0509 8.99056
C 0.535257 7.62953 9.8036
H -0.138866 6.90424 9.39121
H 1.40086 7.0885 10.1882
H 0.337534 8.24059 0.353431
N 7.03833 3.89522 0.109282
C 6.81884 3.60397 8.9347
H 5.80641 3.40101 8.5492
H 7.24759 4.44478 8.35264
H 7.44072 2.70369 8.74341
C 8.26648 4.56603 0.512622
H 8.15369 5.65309 0.389267
H 8.4864 4.3326 1.57022
H 8.90037 4.22965 10.1764
N 9.38594 9.51329 5.44086
C 7.94776 9.84286 5.46586
H 7.67863 10.4789 6.33434
H 7.61025 10.3041 4.51843
H 7.33775 8.92913 5.51221
C 9.85481 9.38932 4.04056
H 10.8937 9.02505 3.95921
H 9.17994 8.73229 3.45714
H 9.88753 10.3565 3.55289
N 8.5583 1.35255 4.11399
C 9.04265 2.57738 4.74841
H 9.46717 3.23066 3.98011
H 9.77526 2.36056 5.54284
H 8.31279 3.02658 5.43996
C 8.23508 0.329433 5.0849
H 8.17156 0.698861 6.13341
H 9.0019 12.1043 4.99567
H 7.28709 12.4111 4.83958
N 10.4673 6.83481 7.0029
C 11.333 7.07555 5.82137
H 11.9455 6.23613 5.60005
H 11.9844 7.95515 5.90234
H 10.8131 7.19053 4.8815
C 10.4051 5.39855 7.36601
H 9.73464 5.24993 8.2371
H 11.3874 4.99152 7.62561
H 10.038 4.76391 6.53187
N 1.37419 4.24987 1.15886
C 1.39475 3.94586 10.0283
H 0.510967 3.49726 9.53573
H 1.73158 4.82932 9.46001
H 2.19566 3.2171 10.0152
C 2.338 5.20222 1.73184
H 1.86523 5.93686 2.42318
H 3.10177 4.6251 2.27988
H 2.89029 5.76675 0.966349
172
Atoms. Timestep: 467
Ni 3.46775 9.8228 8.65426
Ni 6.10962 3.38376 3.46011
O 1.92645 3.99686 4.23196
O 4.99432 8.88544 8.65906
O 4.65567 2.37355 3.32333
O 1.96533 10.7222 9.03402
O 5.4405 4.51842 4.70303
O 3.18445 8.59587 9.89485
O 0.886168 1.655 5.26005
O 3.94278 10.9741 9.98258
N 3.93925 11.1914 7.23427
N 1.1171 1.81466 2.55922
N 2.74069 8.51989 7.25049
N 5.68336 4.75329 1.98035
C 5.00443 11.6761 5.0922
C 0.903377 0.272123 0.6581
H 5.52424 11.2849 4.22889
H 6.11499 0.243694 9.65974
C 4.52871 0.475007 5.08377
C 2.23336 12.3499 0.777307
C 3.61233 0.798641 6.03242
C 2.9405 0.318193 1.87225
H 10.828 1.38562 7.64805
H 3.9225 12.4463 2.09627
C 2.92234 6.80518 5.44047
C 5.08692 5.63512 10.0016
H 3.32863 6.55609 4.48061
H 11.4782 5.05195 9.79527
C 3.4293 7.97492 6.16342
C 5.8812 4.62041 0.597312
H 4.35627 8.38689 5.84145
C 4.83689 10.8595 6.25438
C 0.337695 1.24615 1.58368
H 5.47981 10.0196 6.4014
H 5.41358 2.04496 0.88961
C 3.36581 12.4802 7.14774
C 2.32388 1.23252 2.78427
H 2.70304 1.31851 3.7486
C 1.66056 7.83433 7.66842
C 5.38178 6.05307 2.40695
H 5.13299 6.2659 3.41118
C 1.38129 6.47498 7.20933
C 5.35418 7.16229 1.53621
H 5.48292 6.1581 7.05291
H 5.2189 8.15385 1.95289
C 1.90279 5.98838 5.99149
C 5.22574 6.97498 0.17408
C 5.20927 1.61489 4.31818
C 2.62669 11.2976 10.0655
C 1.33751 4.63767 5.27452
C 4.37152 8.09591 9.60144
Ni 9.0276 9.18075 9.08554
Ni 0.427069 2.97148 4.05774
O 7.49741 4.39439 3.8767
O 10.4745 8.1464 9.34946
O 11.4874 1.93573 4.22495
O 7.50864 10.2069 9.2231
O 0.086004 4.08959 5.45355
O 8.79516 7.92892 0.11134
O 6.30936 2.20115 4.75928
O 9.60473 10.3403 0.137188
N 9.83193 10.5779 7.66304
N 7.04872 2.07452 2.22939
N 8.36307 7.90989 7.65835
N 12.0913 4.33644 2.77654
C 11.2452 11.2068 5.68469
C 6.82418 0.481388 0.313891
H 11.8307 10.839 4.85716
H 0.0267122 12.3162 10.2088
C 11.4026 0.039597 6.06538
C 7.78178 12.118 0.81131
C 10.7648 0.36996 7.28096
C 8.19275 12.3971 2.12369
H 3.26231 1.82263 6.05414
H 8.49677 11.5754 2.71863
C 8.46087 6.5973 5.60551
C 11.6769 5.30155 0.557189
H 9.01966 6.22615 4.7869
H 4.77103 5.38185 9.00286
C 9.12657 7.24438 6.70761
C 0.0107696 4.55119 1.4904
C 10.213 10.3443 6.31313
C 6.34507 1.58832 1.1313
C 10.098 11.8868 8.1
C 8.00453 1.18125 2.75449
H 9.78888 12.2 9.0658
C 7.11395 7.38511 7.8482
C 11.0308 5.1213 3.20473
H 6.74011 7.39746 8.82823
H 10.6606 4.97686 4.19616
C 6.47513 6.53808 6.87131
C 10.4041 6.14421 2.36282
H 0.753766 5.83703 7.77938
H 9.556 6.68806 2.73353
C 7.18226 6.11371 5.7404
C 10.7501 6.29106 1.00649
C 12.1278 1.14936 5.11814
C 8.12152 10.8512 10.2672
C 6.703 4.99967 4.79053
C 10.0582 7.41461 0.0176229
N 2.83413 0.608387 8.29823
C 3.7554 1.6468 8.76646
H 4.80245 1.40921 8.51281
H 3.54732 2.64244 8.3147
H 3.65565 1.6999 9.85285
C 1.50225 1.1545 8.0154
H 1.54086 2.08316 7.41744
H 0.882695 0.364272 7.57042
H 1.00119 1.48109 8.91593
N 11.4546 1.19657 1.80665
C 10.6799 1.75458 0.691474
H 11.0547 1.90761 10.043
H 9.80883 1.14345 0.432324
H 10.3002 2.73428 1.01975
C 11.1218 12.3708 2.28323
H 10.4742 12.4581 3.15767
H 10.7106 11.7635 1.48093
H 11.9954 11.8023 2.6824
N 0.898505 8.45015 8.68429
C -0.0544976 9.41527 8.16672
H 0.41365 10.0675 7.3993
H 11.659 8.89936 7.66799
H 12.0621 10.0509 8.9906
C 0.535272 7.62961 9.80367
H -0.138871 6.90427 9.3913
H 1.40088 7.08855 10.1884
H 0.337487 8.24065 0.353489
N 7.03831 3.89518 0.109413
C 6.81879 3.60396 8.93471
H 5.80641 3.40101 8.54922
H 7.24755 4.44478 8.35266
H 7.44067 2.70368 8.74344
C 8.2664 4.56596 0.512655
H 8.15368 5.65305 0.389426
H 8.48643 4.33245 1.57023
H 8.90033 4.22966 10.1764
N 9.3859 9.51317 5.44078
C 7.94775 9.84282 5.46582
H 7.67853 10.4788 6.3343
H 7.6102 10.304 4.5185
H 7.33781 8.92919 5.51217
C 9.85483 9.38933 4.0405
H 10.8937 9.02507 3.95927
H 9.18002 8.73225 3.45718
H 9.88749 10.3565 3.55283
N 8.55836 1.35262 4.114
C 9.04263 2.57737 4.74835
H 9.46716 3.23072 3.98009
H 9.77526 2.36063 5.54277
H 8.31287 3.02662 5.43992
C 8.23512 0.32941 5.08487
H 8.17164 0.698924 6.13333
H 9.00196 12.1044 4.99559
H 7.28717 12.4111 4.83953
N 10.4672 6.83477 7.00284
C 11.3329 7.07555 5.82144
H 11.9455 6.23616 5.60014
H 11.9843 7.95519 5.90233
H 10.8132 7.19054 4.88149
C 10.405 5.3985 7.36598
H 9.73459 5.24991 8.23706
H 11.3874 4.99148 7.62554
H 10.0379 4.76397 6.5318
N 1.37414 4.24983 1.15881
C 1.39478 3.94591 10.0283
H 0.510934 3.4972 9.53567
H 1.73144 4.82952 9.45993
H 2.19584 3.21727 10.0151
C 2.33807 5.20219 1.73183
H 1.86535 5.93677 2.42313
H 3.10173 4.62501 2.27977
H 2.89029 5.76667 0.96635
172
Atoms. Timestep: 469
Ni 3.46763 9.82279 8.65432
Ni 6.10958 3.38386 3.46018
O 1.92649 3.9969 4.23193
O 4.99434 8.88542 8.65903
O 4.6557 2.37356 3.32335
O 1.96536 10.7222 9.03403
O 5.44048 4.51835 4.70301
O 3.1845 8.59589 9.89487
O 0.88626 1.65495 5.26
O 3.9428 10.974 9.98257
N 3.93932 11.1913 7.2343
N 1.1173 1.81455 2.55912
N 2.74076 8.51988 7.25047
N 5.68336 4.75333 1.98022
C 5.0045 11.676 5.0922
C 0.903451 0.272096 0.658109
H 5.52432 11.2848 4.2289
H 6.11496 0.243656 9.65972
C 4.52871 0.475006 5.08378
C 2.2333 12.3499 0.77731
C 3.61233 0.798621 6.03244
C 2.94054 0.318187 1.87223
H 10.8281 1.38567 7.648
H 3.92255 12.4462 2.09628
C 2.92229 6.8052 5.44048
C 5.08689 5.63512 10.0016
H 3.32861 6.55607 4.48065
H 11.4782 5.05195 9.79525
C 3.42927 7.97488 6.16341
C 5.8812 4.62034 0.597438
H 4.35632 8.38687 5.84147
C 4.83686 10.8596 6.25441
C 0.337467 1.24624 1.58373
H 5.47982 10.0195 6.40141
H 5.41359 2.04486 0.889595
C 3.36575 12.4802 7.14777
C 2.3238 1.2326 2.78431
H 2.70308 1.31849 3.74858
C 1.66053 7.83432 7.66843
C 5.38176 6.05305 2.40704
H 5.13299 6.26592 3.41119
C 1.38121 6.47498 7.20934
C 5.3542 7.16229 1.53615
H 5.48289 6.15807 7.05289
H 5.21896 8.15384 1.95289
C 1.90284 5.98837 5.99147
C 5.22573 6.97492 0.174103
C 5.2093 1.61491 4.31815
C 2.6267 11.2977 10.0655
C 1.33742 4.63773 5.27462
C 4.37146 8.09589 9.60141
Ni 9.02759 9.18074 9.08544
Ni 0.426862 2.9716 4.05785
O 7.49737 4.39435 3.87667
O 10.4745 8.14636 9.34944
O 11.4875 1.93567 4.22489
O 7.50872 10.207 9.22305
O 0.0860741 4.0896 5.45357
O 8.79513 7.92894 0.111336
O 6.30941 2.2011 4.75927
O 9.60478 10.3403 0.137213
N 9.83185 10.5778 7.66304
N 7.04871 2.07446 2.22933
N 8.36311 7.90994 7.65849
N 12.0915 4.33628 2.7765
C 11.2452 11.2067 5.68469
C 6.82413 0.481368 0.313873
H 11.8308 10.839 4.85718
H 0.0267021 12.3162 10.2088
C 11.4026 0.0395958 6.06537
C 7.78183 12.118 0.811377
C 10.7649 0.369921 7.28096
C 8.1927 12.3971 2.12363
H 3.26234 1.82259 6.05414
H 8.49671 11.5754 2.71864
C 8.46088 6.59735 5.60557
C 11.6769 5.3015 0.557177
H 9.01962 6.22616 4.78687
H 4.77101 5.38184 9.00289
C 9.12654 7.24442 6.70753
C 0.0105972 4.55125 1.49035
C 10.213 10.3443 6.3131
C 6.34502 1.58838 1.13138
C 10.098 11.8868 8.09997
C 8.0045 1.18138 2.75463
H 9.78896 12.2 9.06583
C 7.11394 7.38511 7.84816
C 11.0308 5.12138 3.20472
H 6.74011 7.3974 8.82822
H 10.6606 4.97686 4.19617
C 6.47512 6.53814 6.87136
C 10.4041 6.14421 2.36281
H 0.753645 5.83705 7.77932
H 9.55607 6.68813 2.73357
C 7.18224 6.11379 5.74038
C 10.7501 6.29111 1.00647
C 12.1278 1.14936 5.11814
C 8.12147 10.8511 10.2671
C 6.70296 4.99969 4.7905
C 10.0582 7.41465 0.0176493
N 2.83412 0.608364 8.29828
C 3.75545 1.64677 8.76644
H 4.80253 1.40917 8.51282
H 3.5474 2.64243 8.31464
H 3.65566 1.69992 9.85283
C 1.50228 1.15453 8.01543
H 1.54092 2.08316 7.41741
H 0.882727 0.364299 7.57047
H 1.00129 1.48113 8.91597
N 11.4547 1.19653 1.80658
C 10.6799 1.75457 0.691482
H 11.0547 1.90757 10.043
H 9.80885 1.14347 0.432351
H 10.3002 2.73427 1.01973
C 11.1217 12.3708 2.28325
H 10.4741 12.4581 3.15768
H 10.7106 11.7635 1.48095
H 11.9954 11.8023 2.68244
N 0.89852 8.4502 8.68432
C -0.0545105 9.4153 8.16673
H 0.413695 10.0675 7.39931
H 11.659 8.89935 7.66798
H 12.0621 10.0509 8.99062
C 0.53528 7.62965 9.80371
H -0.138867 6.90429 9.39135
H 1.40088 7.08858 10.1885
H 0.33746 8.24069 0.353522
N 7.03824 3.89517 0.109373
C 6.81877 3.60396 8.93474
H 5.8064 3.40101 8.54922
H 7.24753 4.44478 8.35267
H 7.44065 2.70367 8.74346
C 8.26638 4.56594 0.512685
H 8.15367 5.65303 0.389519
H 8.48644 4.33236 1.57023
H 8.9003 4.22966 10.1764
N 9.38586 9.5131 5.44074
C 7.94775 9.8428 5.4658
H 7.67847 10.4788 6.33428
H 7.61017 10.304 4.51854
H 7.33784 8.92922 5.51215
C 9.85484 9.38933 4.04047
H 10.8937 9.02509 3.95931
H 9.18006 8.73223 3.45719
H 9.88747 10.3565 3.55279
N 8.55839 1.35258 4.11395
C 9.04263 2.57739 4.74832
H 9.46715 3.23075 3.98007
H 9.77526 2.36067 5.54273
H 8.3129 3.02665 5.43989
C 8.23515 0.329421 5.08484
H 8.17169 0.698957 6.13328
H 9.002 12.1044 4.99554
H 7.28722 12.4111 4.83951
N 10.4671 6.83477 7.00288
C 11.3328 7.07556 5.82147
H 11.9455 6.23618 5.60019
H 11.9843 7.95521 5.90234
H 10.8132 7.19054 4.88149
C 10.4049 5.39848 7.36596
H 9.73456 5.24989 8.23704
H 11.3873 4.99146 7.62549
H 10.0379 4.764 6.53176
N 1.37421 4.24979 1.15884
C 1.39478 3.94594 10.0283
H 0.510926 3.49717 9.53564
H 1.73136 4.82963 9.45989
H 2.19595 3.21737 10.015
C 2.33809 5.20215 1.73181
H 1.86542 5.93672 2.42311
H 3.10171 4.62495 2.27971
H 2.8903 5.76662 0.966347
172
Atoms. Timestep: 470
Ni 3.46763 9.82279 8.65432
Ni 6.10958 3.38386 3.46018
O 1.92649 3.9969 4.23193
O 4.99434 8.88542 8.65903
O 4.6557 2.37356 3.32335
O 1.96536 10.7222 9.03403
O 5.44048 4.51835 4.70301
O 3.1845 8.59589 9.89487
O 0.88626 1.65495 5.26
O 3.9428 10.974 9.98257
N 3.93932 11.1913 7.2343
N 1.1173 1.81455 2.55912
N 2.74076 8.51988 7.25047
N 5.68336 4.75333 1.98022
C 5.0045 11.676 5.0922
C 0.903451 0.272096 0.658109
H 5.52432 11.2848 4.2289
H 6.11496 0.243656 9.65972
C 4.52871 0.475006 5.08378
C 2.2333 12.3499 0.77731
C 3.61233 0.798621 6.03244
C 2.94054 0.318187 1.87223
H 10.8281 1.38567 7.648
H 3.92255 12.4462 2.09628
C 2.92229 6.8052 5.44048
C 5.08689 5.63512 10.0016
H 3.32861 6.55607 4.48065
H 11.4782 5.05195 9.79525
C 3.42927 7.97488 6.16341
C 5.8812 4.62034 0.597438
H 4.35632 8.38687 5.84147
C 4.83686 10.8596 6.25441
C 0.337467 1.24624 1.58373
H 5.47982 10.0195 6.40141
H 5.41359 2.04486 0.889595
C 3.36575 12.4802 7.14777
C 2.3238 1.2326 2.78431
H 2.70308 1.31849 3.74858
C 1.66053 7.83432 7.66843
C 5.38176 6.05305 2.40704
H 5.13299 6.26592 3.41119
C 1.38121 6.47498 7.20934
C 5.3542 7.16229 1.53615
H 5.48289 6.15807 7.05289
H 5.21896 8.15384 1.95289
C 1.90284 5.98837 5.99147
C 5.22573 6.97492 0.174103
C 5.2093 1.61491 4.31815
C 2.6267 11.2977 10.0655
C 1.33742 4.63773 5.27462
C 4.37146 8.09589 9.60141
Ni 9.02759 9.18074 9.08544
Ni 0.426862 2.9716 4.05785
O 7.49737 4.39435 3.87667
O 10.4745 8.14636 9.34944
O 11.4875 1.93567 4.22489
O 7.50872 10.207 9.22305
O 0.0860741 4.0896 5.45357
O 8.79513 7.92894 0.111336
O 6.30941 2.2011 4.75927
O 9.60478 10.3403 0.137213
N 9.83185 10.5778 7.66304
N 7.04871 2.07446 2.22933
N 8.36311 7.90994 7.65849
N 12.0915 4.33628 2.7765
C 11.2452 11.2067 5.68469
C 6.82413 0.481368 0.313873
H 11.8308 10.839 4.85718
H 0.0267021 12.3162 10.2088
C 11.4026 0.0395958 6.06537
C 7.78183 12.118 0.811377
C 10.7649 0.369921 7.28096
C 8.1927 12.3971 2.12363
H 3.26234 1.82259 6.05414
H 8.49671 11.5754 2.71864
C 8.46088 6.59735 5.60557
C 11.6769 5.3015 0.557177
H 9.01962 6.22616 4.78687
H 4.77101 5.38184 9.00289
C 9.12654 7.24442 6.70753
C 0.0105972 4.55125 1.49035
C 10.213 10.3443 6.3131
C 6.34502 1.58838 1.13138
C 10.098 11.8868 8.09997
C 8.0045 1.18138 2.75463
H 9.78896 12.2 9.06583
C 7.11394 7.38511 7.84816
C 11.0308 5.12138 3.20472
H 6.74011 7.3974 8.82822
H 10.6606 4.97686 4.19617
C 6.47512 6.53814 6.87136
C 10.4041 6.14421 2.36281
H 0.753645 5.83705 7.77932
H 9.55607 6.68813 2.73357
C 7.18224 6.11379 5.74038
C 10.7501 6.29111 1.00647
C 12.1278 1.14936 5.11814
C 8.12147 10.8511 10.2671
C 6.70296 4.99969 4.7905
C 10.0582 7.41465 0.0176493
N 2.83412 0.608364 8.29828
C 3.75545 1.64677 8.76644
H 4.80253 1.40917 8.51282
H 3.5474 2.64243 8.31464
H 3.65566 1.69992 9.85283
C 1.50228 1.15453 8.01543
H 1.54092 2.08316 7.41741
H 0.882727 0.364299 7.57047
H 1.00129 1.48113 8.91597
N 11.4547 1.19653 1.80658
C 10.6799 1.75457 0.691482
H 11.0547 1.90757 10.043
H 9.80885 1.14347 0.432351
H 10.3002 2.73427 1.01973
C 11.1217 12.3708 2.28325
H 10.4741 12.4581 3.15768
H 10.7106 11.7635 1.48095
H 11.9954 11.8023 2.68244
N 0.89852 8.4502 8.68432
C -0.0545105 9.4153 8.16673
H 0.413695 10.0675 7.39931
H 11.659 8.89935 7.66798
H 12.0621 10.0509 8.99062
C 0.53528 7.62965 9.80371
H -0.138867 6.90429 9.39135
H 1.40088 7.08858 10.1885
H 0.33746 8.24069 0.353522
N 7.03824 3.89517 0.109373
C 6.81877 3.60396 8.93474
H 5.8064 3.40101 8.54922
H 7.24753 4.44478 8.35267
H 7.44065 2.70367 8.74346
C 8.26638 4.56594 0.512685
H 8.15367 5.65303 0.389519
H 8.48644 4.33236 1.57023
H 8.9003 4.22966 10.1764
N 9.38586 9.5131 5.44074
C 7.94775 9.8428 5.4658
H 7.67847 10.4788 6.33428
H 7.61017 10.304 4.51854
H 7.33784 8.92922 5.51215
C 9.85484 9.38933 4.04047
H 10.8937 9.02509 3.95931
H 9.18006 8.73223 3.45719
H 9.88747 10.3565 3.55279
N 8.55839 1.35258 4.11395
C 9.04263 2.57739 4.74832
H 9.46715 3.23075 3.98007
H 9.77526 2.36067 5.54273
H 8.3129 3.02665 5.43989
C 8.23515 0.329421 5.08484
H 8.17169 0.698957 6.13328
H 9.002 12.1044 4.99554
H 7.28722 12.4111 4.83951
N 10.4671 6.83477 7.00288
C 11.3328 7.07556 5.82147
H 11.9455 6.23618 5.60019
H 11.9843 7.95521 5.90234
H 10.8132 7.19054 4.88149
C 10.4049 5.39848 7.36596
H 9.73456 5.24989 8.23704
H 11.3873 4.99146 7.62549
H 10.0379 4.764 6.53176
N 1.37421 4.24979 1.15884
C 1.39478 3.94594 10.0283
H 0.510926 3.49717 9.53564
H 1.73136 4.82963 9.45989
H 2.19595 3.21737 10.015
C 2.33809 5.20215 1.73181
H 1.86542 5.93672 2.42311
H 3.10171 4.62495 2.27971
H 2.8903 5.76662 0.966347
