172

Ni	2.8958	9.9459	8.3814
Ni	6.0114	3.3575	2.7560
O	1.4269	4.2582	3.7667
O	4.4381	8.9651	8.4393
O	4.4898	2.3625	2.8737
O	1.4126	10.9164	8.6894
O	5.5529	4.5893	3.9873
O	2.6893	8.8972	9.7983
O	0.4676	1.9007	4.8311
O	3.4721	11.2516	9.4743
N	3.3489	11.1204	6.7952
N	0.7414	2.0271	2.1547
N	2.0443	8.5066	7.2066
N	5.4063	4.5892	1.3045
C	4.7307	11.6549	4.8471
C	0.4782	1.0306	10.1876
H	5.8326	0.0536	8.9931
C	4.3750	0.5350	4.8376
C	1.9134	0.3359	0.1527
C	3.3451	0.8616	5.7565
C	2.5936	0.6669	1.3274
H	0.2520	11.2469	5.3788
H	3.5921	0.2874	1.4904
C	2.1345	6.1336	6.6375
C	5.6509	6.4345	10.0054
C	2.0581	7.1857	7.6127
C	6.2805	5.2364	0.4511
H	2.1212	6.9360	8.6466
H	1.0557	4.6381	1.0610
C	4.4753	10.8932	6.0590
C	0.0847	1.7891	0.9800
H	5.1071	10.0562	6.3109
H	5.1028	1.9208	0.1214
C	2.7367	12.3592	6.5896
C	1.9500	1.4275	2.3512
H	1.7852	0.0542	7.0457
H	2.3845	1.4710	3.3230
C	1.5286	8.7075	5.9392
C	4.1112	5.0487	1.3225
H	1.6045	9.6701	5.4844
H	3.3678	4.4893	1.8702
C	0.9670	7.5868	5.1676
C	3.8172	6.4112	0.9451
H	7.0841	4.7417	6.6732
C	1.2413	6.2228	5.5551
C	4.3794	7.0192	10.2204
C	5.0802	1.6598	3.8887
C	2.1971	11.7047	9.4923
C	0.7373	4.9090	4.7479
C	3.9216	8.3862	9.5756
Ni	9.0445	9.1968	8.4538
Ni	-0.0172	3.1511	3.5769
O	7.5175	4.3414	2.9931
O	10.5572	8.2103	8.7225
O	11.0600	2.0395	3.7119
O	7.5013	10.1984	8.5491
O	12.0309	4.2892	4.9067
O	8.5887	8.0065	9.7402
O	6.3110	2.1987	4.0896
O	9.3568	10.3922	9.7391
N	9.8305	10.4885	7.0694
N	6.7863	2.0588	1.4264
N	8.4193	7.8959	7.0216
N	11.7005	4.3913	2.2057
C	9.7899	0.1477	5.9318
C	6.3860	0.4110	9.8516
C	11.1227	0.1104	5.5144
C	7.5950	12.2767	10.2349
C	11.7712	11.3939	5.7700
C	8.4321	0.2662	1.1584
H	2.9345	1.8588	5.7613
C	8.2221	7.2177	4.6722
C	11.8939	5.6390	0.0201
H	6.3439	6.9292	9.3578
C	8.3027	8.2484	5.6966
C	0.0030	4.8762	1.0860
H	8.5007	9.2614	5.4037
H	7.2649	4.8256	0.2887
C	9.3085	11.7576	6.9358
C	6.0736	1.5147	0.3708
H	8.3802	12.0105	7.4026
H	11.5600	2.0981	0.8911
C	11.0747	10.2956	6.4728
C	8.0493	1.5629	1.6461
H	11.5827	9.3587	6.6182
H	8.6319	1.9879	2.4516
C	8.0266	6.5956	7.3419
C	10.2885	4.6380	2.1520
H	8.1520	6.2110	8.3338
H	11.1880	4.3841	2.5736
C	7.4841	5.6966	6.3587
C	9.8337	5.7169	1.3014
H	0.4936	7.7990	4.2253
H	8.8117	6.0466	1.3981
C	7.4930	6.0327	4.9922
C	10.6471	6.3056	0.2878
C	11.7551	1.3019	4.6278
C	8.1149	10.9075	9.5535
C	6.8265	5.0825	3.9028
C	9.8656	7.5247	9.6838
N	4.7706	10.9293	3.5955
C	3.3975	10.6674	3.1216
H	2.7269	11.5277	3.2953
H	3.4101	10.4203	2.0391
H	2.9192	9.8380	3.6640
C	5.4755	9.6388	3.7466
H	4.9186	8.9373	4.3841
H	5.6594	9.1715	2.7563
H	6.4196	9.7689	4.2932
N	12.2097	0.6424	9.0571
C	11.4829	1.7355	8.3891
H	11.1535	2.5304	9.0753
H	12.1070	2.1451	7.5705
H	10.5362	1.3901	7.9602
C	11.3379	12.1026	9.5011
H	12.0022	11.4774	0.0384
H	10.3664	12.5204	9.8270
H	11.2648	11.3990	8.6916
N	3.4245	5.5434	6.3831
C	4.4939	6.5613	6.3580
H	4.1403	7.5933	6.1782
H	5.1067	6.3817	5.4896
H	5.1035	6.5638	7.2816
C	3.7449	4.4307	7.2820
H	3.8220	4.7682	8.3371
H	4.7113	3.9743	6.9801
H	2.9800	3.6373	7.1967
N	3.1716	7.2829	1.8989
C	3.5813	6.9744	3.2675
H	3.2052	5.9903	3.5981
H	4.6870	6.9678	3.3274
H	3.1938	7.7251	3.9587
C	1.7192	7.4049	1.7521
H	1.4049	7.3076	0.6944
H	1.1968	6.6612	2.3770
H	1.3999	8.4120	2.0956
N	8.8550	0.9165	5.1852
C	8.6552	2.2309	5.8253
H	8.3873	2.9765	5.0581
H	7.8840	2.1975	6.6260
H	9.5992	2.6246	6.2595
C	7.6254	0.1272	4.9836
H	6.8579	0.3924	5.7388
H	7.2950	0.2151	3.9465
H	7.7647	11.5568	5.0675
N	8.8915	11.8661	2.1525
C	10.3147	11.5467	2.2230
H	10.9288	12.4223	1.9502
H	10.5725	10.6567	1.6217
H	10.5660	11.3001	3.2672
C	7.9741	10.7586	2.3540
H	6.9387	11.1429	2.3301
H	8.1834	10.3039	3.3236
H	8.0392	10.0061	1.5598
N	9.3750	7.0374	3.8353
C	9.7654	8.2083	3.0542
H	9.9272	9.0927	3.6968
H	9.0194	8.3363	2.2624
H	10.7310	8.0420	2.5307
C	10.4883	6.6049	4.6641
H	11.3340	6.3934	3.9970
H	10.2023	5.6891	5.2174
H	10.7886	7.3846	5.3962
N	12.1118	5.4497	8.9154
C	0.7303	4.4944	8.7846
H	0.5572	3.5584	9.3234
H	1.6557	4.9156	9.2147
H	0.9006	4.2059	7.7333
C	10.9955	5.0722	8.0204
H	10.1594	4.5712	8.5568
H	11.2953	4.3859	7.2096
H	10.6246	5.9791	7.5194
