180

Ni	3.1374	8.1102	9.3504
Ni	-0.0866	2.6417	3.7982
O	1.4162	3.8351	4.2274
O	4.6898	6.9267	9.7892
O	5.1720	1.4215	4.0997
O	1.6069	9.3259	9.7107
O	6.2819	3.9656	5.2200
O	2.7675	6.7685	10.7863
O	0.2499	1.2483	5.1803
O	3.5076	9.4934	10.7482
N	3.9515	9.2464	7.9858
N	0.7309	1.5120	2.4239
N	2.3936	6.9346	8.0111
N	5.9677	3.8364	2.4359
C	3.8150	10.4925	5.9576
C	0.5640	0.2657	0.3971
H	3.2106	0.1273	5.1471
C	5.1884	10.7557	6.0462
C	1.9374	10.7584	0.4663
C	5.9376	10.2474	7.1110
C	2.7030	0.5083	1.5183
H	0.2035	10.4451	7.2143
C	2.6285	5.6050	6.0532
C	6.2063	5.1694	0.4714
C	3.1721	6.4346	7.0301
C	6.7456	4.3406	1.4565
H	4.2275	6.7060	7.0481
H	1.0036	4.0727	1.4775
C	3.2202	9.7241	6.9589
C	-0.0149	1.0336	1.4079
H	2.1562	9.4853	6.9582
H	5.7203	1.2716	1.4238
C	5.2780	9.4817	8.0736
C	2.0583	1.2768	2.4899
H	5.7970	9.0451	8.9248
H	2.5923	1.7148	3.3313
C	1.0718	6.6716	8.0742
C	4.6460	4.1040	2.4865
H	0.5185	7.1363	8.8888
H	4.0855	3.6429	3.2979
C	0.4637	5.8416	7.1332
C	4.0412	4.9316	1.5380
H	2.9776	5.1455	1.6093
C	1.2636	5.3053	6.1217
C	4.8393	5.4680	0.5235
C	5.8202	0.8815	5.0765
C	2.2799	9.8645	10.6727
C	0.7022	4.3674	5.1639
C	3.9951	6.3910	10.7345
Ni	9.9358	8.1102	9.3504
Ni	6.7119	2.6417	3.7982
O	8.2147	3.8351	4.2274
O	11.4883	6.9267	9.7892
O	11.9704	1.4215	4.0997
O	8.4053	9.3259	9.7107
O	13.0804	3.9656	5.2200
O	9.5659	6.7685	10.7863
O	7.0483	1.2483	5.1803
O	10.3060	9.4934	10.7482
N	10.7499	9.2464	7.9858
N	7.5293	1.5120	2.4239
N	9.1920	6.9346	8.0111
N	12.7661	3.8364	2.4359
C	10.6134	10.4925	5.9576
C	7.3625	0.2657	0.3971
H	13.2756	10.6366	10.7790
C	11.9868	10.7557	6.0462
C	8.7359	10.7584	0.4663
C	12.7360	10.2474	7.1110
C	9.5015	0.5083	1.5183
H	10.5679	0.3138	1.6056
C	9.4270	5.6050	6.0532
C	13.0048	5.1694	0.4714
H	10.0588	5.1898	5.2742
C	9.9706	6.4346	7.0301
C	13.5441	4.3406	1.4565
H	11.0260	6.7060	7.0481
H	7.8020	4.0727	1.4775
C	10.0187	9.7241	6.9589
C	6.7836	1.0336	1.4079
H	8.9547	9.4853	6.9582
H	12.5188	1.2716	1.4238
C	12.0764	9.4817	8.0736
C	8.8568	1.2768	2.4899
H	12.5955	9.0451	8.9248
H	9.3908	1.7148	3.3313
C	7.8703	6.6716	8.0742
C	11.4445	4.1040	2.4865
H	7.3170	7.1363	8.8888
H	10.8840	3.6429	3.2979
C	7.2622	5.8416	7.1332
C	10.8396	4.9316	1.5380
H	12.9987	5.6216	7.2108
H	9.7760	5.1455	1.6093
C	8.0620	5.3053	6.1217
C	11.6378	5.4680	0.5235
C	12.6187	0.8815	5.0765
C	9.0784	9.8645	10.6727
C	7.5006	4.3674	5.1639
C	10.7935	6.3910	10.7345
C	7.4456	10.5169	7.2299
C	8.1628	9.9049	8.4456
H	7.9379	10.1138	6.3183
H	7.5934	11.6177	7.2785
C	9.6500	10.2499	8.4389
H	7.7170	10.3009	9.3841
H	8.0612	8.7980	8.4244
H	9.7919	11.3510	8.4787
H	10.1414	9.7964	9.3254
H	10.1351	9.8525	7.5219
C	4.2128	0.2395	1.6146
C	4.9487	0.8547	2.8173
H	4.6907	0.6403	0.6943
H	4.3616	-0.8612	1.6636
C	6.4357	0.5100	2.7883
H	4.5177	0.4610	3.7636
H	4.8466	1.9616	2.7949
H	6.5785	-0.5910	2.8287
H	6.9408	0.9658	3.6659
H	6.9064	0.9051	1.8628
C	3.5143	5.0375	4.9312
C	5.0000	5.4356	4.9581
H	3.0977	5.3806	3.9592
H	3.4683	3.9280	4.9865
C	5.7602	4.8058	3.7935
H	5.4653	5.0890	5.9066
H	5.0949	6.5406	4.8800
H	5.7037	3.6977	3.8487
H	6.8274	5.1094	3.8378
H	5.3345	5.1450	2.8251
C	7.1037	5.7366	-0.6425
C	8.5899	5.3415	-0.5994
H	7.0550	6.8460	-0.5896
H	6.6979	5.3911	-1.6181
C	9.3609	5.9708	-1.7572
H	8.6878	4.2366	-0.6747
H	9.0445	5.6906	0.3533
H	8.9459	5.6291	-2.7294
H	10.4282	5.6694	-1.7012
H	9.3016	7.0789	-1.7045
C	9.7725	11.0329	4.7889
C	8.2750	10.6805	4.7962
H	10.2016	10.6328	3.8445
H	9.8511	12.1418	4.7944
C	7.5627	11.2775	3.5850
H	7.7979	11.0844	5.7157
H	8.1482	9.5763	4.7664
H	7.6518	12.3848	3.5908
H	6.4859	11.0078	3.6160
H	8.0010	10.8811	2.6443
C	6.5039	-0.2686	-0.7619
C	5.0080	0.0893	-0.7337
H	6.9219	0.1324	-1.7109
H	6.5785	-1.3778	-0.7602
C	4.2774	-0.5019	-1.9369
H	4.5417	-0.3152	0.1910
H	4.8849	1.1940	-0.7590
H	4.3624	-1.6095	-1.9351
H	3.2022	-0.2284	-1.8909
H	4.7046	-0.1047	-2.8823
C	5.7604	5.5348	7.2171
C	4.9865	6.1849	8.3770
H	5.6413	4.4339	7.3162
H	5.2879	5.8779	6.2711
C	3.5103	5.7969	8.3401
H	5.0583	7.2919	8.3034
H	5.4115	5.8488	9.3479
H	3.0454	6.1343	7.3892
H	2.9774	6.2791	9.1865
H	3.3975	4.6954	8.4306
C	13.9022	5.7366	-0.6425
C	15.3884	5.3415	-0.5994
H	13.8534	6.8460	-0.5896
H	13.4964	5.3911	-1.6181
C	16.1594	5.9708	-1.7572
H	15.4862	4.2366	-0.6747
H	15.8430	5.6906	0.3533
H	15.7444	5.6291	-2.7294
H	17.2266	5.6694	-1.7012
H	16.1001	7.0789	-1.7045
