432

Ni	2.8986	9.4112	8.5926
Ni	6.1753	3.1058	3.4848
O	1.4483	4.3542	3.9337
O	4.4416	8.1524	9.0546
O	4.6367	1.8473	3.8752
O	1.3650	10.6743	9.0030
O	5.8061	4.4603	4.9624
O	2.5424	8.0327	10.0675
O	0.2512	1.6926	4.9427
O	3.2372	10.8047	10.0626
N	3.6968	10.6606	7.2416
N	0.7126	1.8642	2.1170
N	2.1722	8.1441	7.2520
N	5.4402	4.3948	2.1375
C	3.4855	12.1483	5.3630
C	0.4749	0.3896	0.2292
H	2.8645	12.5181	4.5527
H	5.8697	0.0337	9.6938
C	4.7607	0.1474	5.6148
C	1.7433	12.3699	0.4741
C	5.5034	12.1502	6.6821
C	2.4985	0.3551	1.5400
H	0.2477	12.5084	6.9199
H	3.4916	12.5067	1.7734
C	2.4836	6.6337	5.4082
C	5.7280	5.9036	0.2867
H	3.1330	6.2729	4.6160
H	-0.1083	6.2667	9.7662
C	2.9276	7.6810	6.2307
C	6.1883	4.8676	1.1160
H	3.8999	8.1465	6.0889
H	0.9159	4.4189	0.9763
C	2.9826	11.1359	6.1975
C	-0.0104	1.4055	1.0711
H	1.9939	10.7090	6.0470
H	5.2609	1.8501	0.9235
C	4.9364	11.1381	7.4751
C	1.9482	1.3719	2.3406
H	5.4856	10.7097	8.3094
H	2.5089	1.7921	3.1727
C	0.9457	7.6265	7.4730
C	4.2108	4.9046	2.3569
H	0.3633	8.0518	8.2873
H	3.6361	4.4774	3.1753
C	0.4386	6.5758	6.6918
C	3.6876	5.9450	1.5694
H	5.7077	6.1769	6.9197
H	2.6982	6.3268	1.8007
C	1.2275	6.0647	5.6520
C	4.4634	6.4578	0.5203
C	5.3126	1.2438	4.7942
C	2.0502	11.2676	9.9216
C	0.7355	4.9402	4.8359
C	3.7317	7.5663	9.9569
Ni	2.6710	9.4112	18.8669
Ni	5.9477	3.1058	13.7591
O	1.2207	4.3542	14.2080
O	4.2140	8.1524	19.3289
O	4.4091	1.8473	14.1495
O	1.1374	10.6743	19.2772
O	5.5785	4.4603	15.2367
O	2.3148	8.0327	20.3418
O	0.0236	1.6926	15.2170
O	3.0096	10.8047	20.3369
N	3.4692	10.6606	17.5159
N	0.4850	1.8642	12.3913
N	1.9446	8.1441	17.5263
N	5.2126	4.3948	12.4118
C	3.2579	12.1483	15.6373
C	0.2473	0.3896	10.5035
H	2.6369	12.5181	14.8269
H	5.6421	0.0337	19.9681
C	4.5331	0.1474	15.8891
C	1.5157	12.3699	10.7484
C	5.2759	12.1502	16.9564
C	2.2709	0.3551	11.8143
H	0.0201	12.5084	17.1942
H	3.2640	12.5067	12.0476
C	2.2560	6.6337	15.6825
C	5.5004	5.9036	10.5610
H	2.9054	6.2729	14.8903
H	-0.3359	6.2667	20.0405
C	2.7000	7.6810	16.5050
C	5.9607	4.8676	11.3902
H	3.6723	8.1465	16.3632
H	0.6883	4.4189	11.2506
C	2.7550	11.1359	16.4718
C	-0.2379	1.4055	11.3453
H	1.7663	10.7090	16.3213
H	5.0333	1.8501	11.1978
C	4.7088	11.1381	17.7494
C	1.7206	1.3719	12.6149
H	5.2580	10.7097	18.5837
H	2.2813	1.7921	13.4469
C	0.7181	7.6265	17.7473
C	3.9832	4.9046	12.6311
H	0.1357	8.0518	18.5616
H	3.4085	4.4774	13.4496
C	0.2110	6.5758	16.9660
C	3.4600	5.9450	11.8437
H	5.4801	6.1769	17.1940
H	2.4706	6.3268	12.0750
C	0.9999	6.0647	15.9263
C	4.2358	6.4578	10.7945
C	5.0850	1.2438	15.0685
C	1.8226	11.2676	20.1959
C	0.5079	4.9402	15.1101
C	3.5041	7.5663	20.2312
Ni	2.8986	21.9346	8.5926
Ni	6.1753	15.6292	3.4848
O	1.4483	16.8776	3.9337
O	4.4416	20.6758	9.0546
O	4.6367	14.3707	3.8752
O	1.3650	23.1977	9.0030
O	5.8061	16.9837	4.9624
O	2.5424	20.5561	10.0675
O	0.2512	14.2160	4.9427
O	3.2372	23.3281	10.0626
N	3.6968	23.1840	7.2416
N	0.7126	14.3876	2.1170
N	2.1722	20.6675	7.2520
N	5.4402	16.9182	2.1375
C	3.4855	24.6717	5.3630
C	0.4749	12.9130	0.2292
H	2.8645	25.0415	4.5527
H	5.8697	12.5571	9.6938
C	4.7607	12.6708	5.6148
C	1.7433	24.8933	0.4741
C	5.5034	24.6736	6.6821
C	2.4985	12.8785	1.5400
H	0.2477	25.0318	6.9199
H	3.4916	25.0301	1.7734
C	2.4836	19.1571	5.4082
C	5.7280	18.4270	0.2867
H	3.1330	18.7963	4.6160
H	-0.1083	18.7901	9.7662
C	2.9276	20.2044	6.2307
C	6.1883	17.3910	1.1160
H	3.8999	20.6699	6.0889
H	0.9159	16.9423	0.9763
C	2.9826	23.6593	6.1975
C	-0.0104	13.9289	1.0711
H	1.9939	23.2324	6.0470
H	5.2609	14.3735	0.9235
C	4.9364	23.6615	7.4751
C	1.9482	13.8953	2.3406
H	5.4856	23.2331	8.3094
H	2.5089	14.3155	3.1727
C	0.9457	20.1499	7.4730
C	4.2108	17.4280	2.3569
H	0.3633	20.5752	8.2873
H	3.6361	17.0008	3.1753
C	0.4386	19.0992	6.6918
C	3.6876	18.4684	1.5694
H	5.7077	18.7003	6.9197
H	2.6982	18.8502	1.8007
C	1.2275	18.5881	5.6520
C	4.4634	18.9812	0.5203
C	5.3126	13.7672	4.7942
C	2.0502	23.7910	9.9216
C	0.7355	17.4636	4.8359
C	3.7317	20.0897	9.9569
Ni	2.6710	21.9346	18.8669
Ni	5.9477	15.6292	13.7591
O	1.2207	16.8776	14.2080
O	4.2140	20.6758	19.3289
O	4.4091	14.3707	14.1495
O	1.1374	23.1977	19.2772
O	5.5785	16.9837	15.2367
O	2.3148	20.5561	20.3418
O	0.0236	14.2160	15.2170
O	3.0096	23.3281	20.3369
N	3.4692	23.1840	17.5159
N	0.4850	14.3876	12.3913
N	1.9446	20.6675	17.5263
N	5.2126	16.9182	12.4118
C	3.2579	24.6717	15.6373
C	0.2473	12.9130	10.5035
H	2.6369	25.0415	14.8269
H	5.6421	12.5571	19.9681
C	4.5331	12.6708	15.8891
C	1.5157	24.8933	10.7484
C	5.2759	24.6736	16.9564
C	2.2709	12.8785	11.8143
H	0.0201	25.0318	17.1942
H	3.2640	25.0301	12.0476
C	2.2560	19.1571	15.6825
C	5.5004	18.4270	10.5610
H	2.9054	18.7963	14.8903
H	-0.3359	18.7901	20.0405
C	2.7000	20.2044	16.5050
C	5.9607	17.3910	11.3902
H	3.6723	20.6699	16.3632
H	0.6883	16.9423	11.2506
C	2.7550	23.6593	16.4718
C	-0.2379	13.9289	11.3453
H	1.7663	23.2324	16.3213
H	5.0333	14.3735	11.1978
C	4.7088	23.6615	17.7494
C	1.7206	13.8953	12.6149
H	5.2580	23.2331	18.5837
H	2.2813	14.3155	13.4469
C	0.7181	20.1499	17.7473
C	3.9832	17.4280	12.6311
H	0.1357	20.5752	18.5616
H	3.4085	17.0008	13.4496
C	0.2110	19.0992	16.9660
C	3.4600	18.4684	11.8437
H	5.4801	18.7003	17.1940
H	2.4706	18.8502	12.0750
C	0.9999	18.5881	15.9263
C	4.2358	18.9812	10.7945
C	5.0850	13.7672	15.0685
C	1.8226	23.7910	20.1959
C	0.5079	17.4636	15.1101
C	3.5041	20.0897	20.2312
Ni	9.1514	9.4112	8.5926
Ni	12.4281	3.1058	3.4848
O	7.7011	4.3542	3.9337
O	10.6944	8.1524	9.0546
O	10.8895	1.8473	3.8752
O	7.6178	10.6743	9.0030
O	12.0589	4.4603	4.9624
O	8.7952	8.0327	10.0675
O	6.5040	1.6926	4.9427
O	9.4900	10.8047	10.0626
N	9.9496	10.6606	7.2416
N	6.9654	1.8642	2.1170
N	8.4250	8.1441	7.2520
N	11.6930	4.3948	2.1375
C	9.7383	12.1483	5.3630
C	6.7277	0.3896	0.2292
H	9.1173	12.5181	4.5527
H	12.1225	0.0337	9.6938
C	11.0135	0.1474	5.6148
C	7.9961	12.3699	0.4741
C	11.7562	12.1502	6.6821
C	8.7513	0.3551	1.5400
H	6.5005	12.5084	6.9199
H	9.7444	12.5067	1.7734
C	8.7364	6.6337	5.4082
C	11.9808	5.9036	0.2867
H	9.3858	6.2729	4.6160
H	6.1445	6.2667	9.7662
C	9.1804	7.6810	6.2307
C	12.4411	4.8676	1.1160
H	10.1527	8.1465	6.0889
H	7.1687	4.4189	0.9763
C	9.2354	11.1359	6.1975
C	6.2424	1.4055	1.0711
H	8.2467	10.7090	6.0470
H	11.5137	1.8501	0.9235
C	11.1892	11.1381	7.4751
C	8.2010	1.3719	2.3406
H	11.7384	10.7097	8.3094
H	8.7617	1.7921	3.1727
C	7.1985	7.6265	7.4730
C	10.4636	4.9046	2.3569
H	6.6161	8.0518	8.2873
H	9.8889	4.4774	3.1753
C	6.6914	6.5758	6.6918
C	9.9404	5.9450	1.5694
H	11.9605	6.1769	6.9197
H	8.9510	6.3268	1.8007
C	7.4803	6.0647	5.6520
C	10.7162	6.4578	0.5203
C	11.5654	1.2438	4.7942
C	8.3030	11.2676	9.9216
C	6.9883	4.9402	4.8359
C	9.9845	7.5663	9.9569
Ni	8.9238	9.4112	18.8669
Ni	12.2005	3.1058	13.7591
O	7.4735	4.3542	14.2080
O	10.4668	8.1524	19.3289
O	10.6619	1.8473	14.1495
O	7.3902	10.6743	19.2772
O	11.8313	4.4603	15.2367
O	8.5676	8.0327	20.3418
O	6.2764	1.6926	15.2170
O	9.2624	10.8047	20.3369
N	9.7220	10.6606	17.5159
N	6.7378	1.8642	12.3913
N	8.1974	8.1441	17.5263
N	11.4654	4.3948	12.4118
C	9.5107	12.1483	15.6373
C	6.5001	0.3896	10.5035
H	8.8897	12.5181	14.8269
H	11.8949	0.0337	19.9681
C	10.7859	0.1474	15.8891
C	7.7685	12.3699	10.7484
C	11.5287	12.1502	16.9564
C	8.5237	0.3551	11.8143
H	6.2729	12.5084	17.1942
H	9.5168	12.5067	12.0476
C	8.5088	6.6337	15.6825
C	11.7532	5.9036	10.5610
H	9.1582	6.2729	14.8903
H	5.9169	6.2667	20.0405
C	8.9528	7.6810	16.5050
C	12.2135	4.8676	11.3902
H	9.9251	8.1465	16.3632
H	6.9411	4.4189	11.2506
C	9.0078	11.1359	16.4718
C	6.0149	1.4055	11.3453
H	8.0191	10.7090	16.3213
H	11.2861	1.8501	11.1978
C	10.9616	11.1381	17.7494
C	7.9734	1.3719	12.6149
H	11.5108	10.7097	18.5837
H	8.5341	1.7921	13.4469
C	6.9709	7.6265	17.7473
C	10.2360	4.9046	12.6311
H	6.3885	8.0518	18.5616
H	9.6613	4.4774	13.4496
C	6.4638	6.5758	16.9660
C	9.7128	5.9450	11.8437
H	11.7329	6.1769	17.1940
H	8.7234	6.3268	12.0750
C	7.2527	6.0647	15.9263
C	10.4886	6.4578	10.7945
C	11.3378	1.2438	15.0685
C	8.0754	11.2676	20.1959
C	6.7607	4.9402	15.1101
C	9.7569	7.5663	20.2312
Ni	9.1514	21.9346	8.5926
Ni	12.4281	15.6292	3.4848
O	7.7011	16.8776	3.9337
O	10.6944	20.6758	9.0546
O	10.8895	14.3707	3.8752
O	7.6178	23.1977	9.0030
O	12.0589	16.9837	4.9624
O	8.7952	20.5561	10.0675
O	6.5040	14.2160	4.9427
O	9.4900	23.3281	10.0626
N	9.9496	23.1840	7.2416
N	6.9654	14.3876	2.1170
N	8.4250	20.6675	7.2520
N	11.6930	16.9182	2.1375
C	9.7383	24.6717	5.3630
C	6.7277	12.9130	0.2292
H	9.1173	25.0415	4.5527
H	12.1225	12.5571	9.6938
C	11.0135	12.6708	5.6148
C	7.9961	24.8933	0.4741
C	11.7562	24.6736	6.6821
C	8.7513	12.8785	1.5400
H	6.5005	25.0318	6.9199
H	9.7444	25.0301	1.7734
C	8.7364	19.1571	5.4082
C	11.9808	18.4270	0.2867
H	9.3858	18.7963	4.6160
H	6.1445	18.7901	9.7662
C	9.1804	20.2044	6.2307
C	12.4411	17.3910	1.1160
H	10.1527	20.6699	6.0889
H	7.1687	16.9423	0.9763
C	9.2354	23.6593	6.1975
C	6.2424	13.9289	1.0711
H	8.2467	23.2324	6.0470
H	11.5137	14.3735	0.9235
C	11.1892	23.6615	7.4751
C	8.2010	13.8953	2.3406
H	11.7384	23.2331	8.3094
H	8.7617	14.3155	3.1727
C	7.1985	20.1499	7.4730
C	10.4636	17.4280	2.3569
H	6.6161	20.5752	8.2873
H	9.8889	17.0008	3.1753
C	6.6914	19.0992	6.6918
C	9.9404	18.4684	1.5694
H	11.9605	18.7003	6.9197
H	8.9510	18.8502	1.8007
C	7.4803	18.5881	5.6520
C	10.7162	18.9812	0.5203
C	11.5654	13.7672	4.7942
C	8.3030	23.7910	9.9216
C	6.9883	17.4636	4.8359
C	9.9845	20.0897	9.9569
Ni	8.9238	21.9346	18.8669
Ni	12.2005	15.6292	13.7591
O	7.4735	16.8776	14.2080
O	10.4668	20.6758	19.3289
O	10.6619	14.3707	14.1495
O	7.3902	23.1977	19.2772
O	11.8313	16.9837	15.2367
O	8.5676	20.5561	20.3418
O	6.2764	14.2160	15.2170
O	9.2624	23.3281	20.3369
N	9.7220	23.1840	17.5159
N	6.7378	14.3876	12.3913
N	8.1974	20.6675	17.5263
N	11.4654	16.9182	12.4118
C	9.5107	24.6717	15.6373
C	6.5001	12.9130	10.5035
H	8.8897	25.0415	14.8269
H	11.8949	12.5571	19.9681
C	10.7859	12.6708	15.8891
C	7.7685	24.8933	10.7484
C	11.5287	24.6736	16.9564
C	8.5237	12.8785	11.8143
H	6.2729	25.0318	17.1942
H	9.5168	25.0301	12.0476
C	8.5088	19.1571	15.6825
C	11.7532	18.4270	10.5610
H	9.1582	18.7963	14.8903
H	5.9169	18.7901	20.0405
C	8.9528	20.2044	16.5050
C	12.2135	17.3910	11.3902
H	9.9251	20.6699	16.3632
H	6.9411	16.9423	11.2506
C	9.0078	23.6593	16.4718
C	6.0149	13.9289	11.3453
H	8.0191	23.2324	16.3213
H	11.2861	14.3735	11.1978
C	10.9616	23.6615	17.7494
C	7.9734	13.8953	12.6149
H	11.5108	23.2331	18.5837
H	8.5341	14.3155	13.4469
C	6.9709	20.1499	17.7473
C	10.2360	17.4280	12.6311
H	6.3885	20.5752	18.5616
H	9.6613	17.0008	13.4496
C	6.4638	19.0992	16.9660
C	9.7128	18.4684	11.8437
H	11.7329	18.7003	17.1940
H	8.7234	18.8502	12.0750
C	7.2527	18.5881	15.9263
C	10.4886	18.9812	10.7945
C	11.3378	13.7672	15.0685
C	8.0754	23.7910	20.1959
C	6.7607	17.4636	15.1101
C	9.7569	20.0897	20.2312
