164

Ni	2.9028	9.4421	8.6245
O	1.4194	4.3784	4.0368
O	4.6360	1.6666	3.8035
O	5.7451	4.4111	5.1094
O	0.3079	1.5003	4.8721
N	3.7677	10.5560	7.1530
N	2.0951	8.0914	7.3471
C	3.5585	12.0137	5.2748
H	3.0266	12.3506	4.5628
C	4.8383	12.4984	5.4834
C	5.5898	11.9548	6.5283
H	0.2284	12.2454	6.6834
C	2.4254	6.5009	5.5902
H	2.9870	6.1490	4.9091
C	2.8617	7.5541	6.3875
H	3.7328	7.9060	6.2457
C	3.0629	11.0319	6.1132
H	2.1949	10.6825	5.9498
C	5.0180	10.9918	7.3328
C	0.8614	7.5704	7.5475
C	0.3657	6.5159	6.8077
H	5.7518	6.1678	6.9773
C	1.1715	5.9737	5.8009
C	5.3864	1.1183	4.6748
C	0.6533	4.8365	4.9471
Ni	6.1430	3.0813	3.4874
O	4.4320	8.1450	9.1739
O	1.3958	10.8568	8.9407
O	2.5049	8.1123	10.2465
O	3.3205	11.0231	10.0092
N	0.7551	1.9674	2.0158
N	5.3353	4.4320	2.2100
C	0.5459	0.5097	0.1377
H	-0.2136	0.1728	9.6999
C	1.8257	0.0250	0.3462
C	2.5772	0.5686	1.3911
H	3.4686	0.2780	1.5463
C	5.6656	6.0225	0.4531
H	5.9996	6.3744	10.0462
C	6.1019	4.9693	1.2504
C	0.0503	1.4915	0.9761
C	2.0054	1.5316	2.1956
H	2.5200	1.8998	2.9035
C	4.1016	4.9530	2.4103
C	3.6059	6.0075	1.6706
H	2.7392	6.3556	1.8401
C	4.4117	6.5497	0.6637
C	2.1462	11.4051	9.8119
C	3.6659	7.6869	10.0842
Ni	9.1556	9.4421	8.6245
O	7.6722	4.3784	4.0368
O	10.8888	1.6666	3.8035
O	11.9979	4.4111	5.1094
O	6.5607	1.5003	4.8721
N	10.0205	10.5560	7.1530
N	8.3479	8.0914	7.3471
C	9.8113	12.0137	5.2748
H	9.2794	12.3506	4.5628
C	11.0911	12.4984	5.4834
C	11.8426	11.9548	6.5283
H	6.4812	12.2454	6.6834
C	8.6782	6.5009	5.5902
H	9.2398	6.1490	4.9091
C	9.1145	7.5541	6.3875
H	9.9856	7.9060	6.2457
C	9.3157	11.0319	6.1132
C	11.2708	10.9918	7.3328
H	11.7854	10.6236	8.0407
C	7.1142	7.5704	7.5475
C	6.6185	6.5159	6.8077
H	12.0046	6.1678	6.9773
C	7.4243	5.9737	5.8009
C	11.6392	1.1183	4.6748
C	6.9061	4.8365	4.9471
Ni	12.3958	3.0813	3.4874
O	10.6848	8.1450	9.1739
O	7.6486	10.8568	8.9407
O	8.7577	8.1123	10.2465
O	9.5733	11.0231	10.0092
N	7.0079	1.9674	2.0158
N	11.5881	4.4320	2.2100
C	6.7987	0.5097	0.1377
H	6.0392	0.1728	9.6999
C	8.0785	0.0250	0.3462
C	8.8300	0.5686	1.3911
H	9.7214	0.2780	1.5463
C	11.9184	6.0225	0.4531
H	12.2524	6.3744	10.0462
C	12.3547	4.9693	1.2504
H	6.9730	4.6174	1.1086
C	6.3031	1.4915	0.9761
C	8.2582	1.5316	2.1956
H	8.7728	1.8998	2.9035
C	10.3544	4.9530	2.4103
H	9.8066	4.5761	3.0895
C	9.8587	6.0075	1.6706
H	8.9920	6.3556	1.8401
C	10.6645	6.5497	0.6637
C	8.3990	11.4051	9.8119
C	9.9187	7.6869	10.0842
O	5.8115	10.4721	8.3713
C	5.4072	9.5056	9.2718
C	6.5427	9.2090	10.2388
H	5.1413	8.5708	8.7314
H	4.5285	9.8681	9.8488
H	7.4298	8.8389	9.6822
H	6.2235	8.4324	10.9655
H	6.8199	10.1301	10.7943
O	0.0274	8.1055	8.5441
C	0.3534	9.1573	9.3784
C	-0.8100	9.4379	10.3165
H	0.5587	10.0696	8.7766
H	1.2494	8.8979	9.9838
H	-1.7152	9.7056	9.7308
H	-0.5537	10.2828	10.9898
H	-1.0277	8.5395	10.9323
O	-1.2342	1.9830	0.7010
C	-1.8843	2.9599	1.4301
C	-3.2534	3.2185	0.8208
H	-1.2967	3.9037	1.4087
H	-2.0161	2.6240	2.4820
H	-3.1437	3.5617	-0.2299
H	-3.7809	4.0033	1.4029
H	-3.8597	2.2880	0.8383
O	3.2675	4.4179	3.4070
C	3.5936	3.3661	4.2412
C	2.4301	3.0855	5.1793
H	4.4896	3.6253	4.8466
H	3.7988	2.4538	3.6394
H	2.2126	3.9839	5.7952
H	2.6865	2.2405	5.8527
H	1.5250	2.8179	4.5937
O	8.0312	10.5404	5.8382
C	7.3811	9.5635	6.5672
C	6.0121	9.3049	5.9580
H	7.2493	9.8993	7.6191
H	7.9687	8.6196	6.5457
H	5.4057	10.2354	5.9755
H	5.4845	8.5200	6.5400
H	6.1217	8.9618	4.9072
O	6.2802	8.1055	8.5441
C	6.6062	9.1573	9.3784
C	5.4428	9.4379	10.3165
H	6.8115	10.0696	8.7766
H	7.5022	8.8979	9.9838
H	4.5376	9.7056	9.7308
H	5.6991	10.2828	10.9898
H	5.2251	8.5395	10.9323
O	5.0186	1.9830	0.7010
C	4.3685	2.9599	1.4301
C	2.9994	3.2185	0.8208
H	4.9561	3.9037	1.4087
H	4.2367	2.6240	2.4820
H	3.1091	3.5617	-0.2299
H	2.4719	4.0033	1.4029
H	2.3931	2.2880	0.8383
O	13.6476	4.4818	1.0096
C	14.2443	3.4452	1.7008
C	15.6427	3.2101	1.1515
H	14.3201	3.7024	2.7799
H	13.6483	2.5144	1.5781
H	16.2575	4.1276	1.2703
H	16.1276	2.3775	1.7034
H	15.5889	2.9452	0.0741
