180

Ni	2.9028	9.4421	8.6245
O	1.4194	4.3784	4.0368
O	4.6360	1.6666	3.8035
O	5.7451	4.4111	5.1094
O	0.3079	1.5003	4.8721
N	3.7677	10.5560	7.1530
N	2.0951	8.0914	7.3471
C	3.5585	12.0137	5.2748
C	4.8383	12.4984	5.4834
C	5.5898	11.9548	6.5283
C	2.4254	6.5009	5.5902
C	2.8617	7.5541	6.3875
H	3.7328	7.9060	6.2457
C	3.0629	11.0319	6.1132
H	2.1949	10.6825	5.9498
C	5.0180	10.9918	7.3328
H	5.5326	10.6236	8.0407
C	0.8614	7.5704	7.5475
H	0.3136	7.9473	8.2266
C	0.3657	6.5159	6.8077
C	1.1715	5.9737	5.8009
C	5.3864	1.1183	4.6748
C	0.6533	4.8365	4.9471
Ni	6.1430	3.0813	3.4874
O	4.4320	8.1450	9.1739
O	1.3958	10.8568	8.9407
O	2.5049	8.1123	10.2465
O	3.3205	11.0231	10.0092
N	0.7551	1.9674	2.0158
N	5.3353	4.4320	2.2100
C	0.5459	0.5097	0.1377
C	1.8257	0.0250	0.3462
C	2.5772	0.5686	1.3911
H	3.4686	0.2780	1.5463
C	5.6656	6.0225	0.4531
C	6.1019	4.9693	1.2504
H	0.7202	4.6174	1.1086
C	0.0503	1.4915	0.9761
H	5.4351	1.8409	0.8127
C	2.0054	1.5316	2.1956
H	2.5200	1.8998	2.9035
C	4.1016	4.9530	2.4103
H	3.5538	4.5761	3.0895
C	3.6059	6.0075	1.6706
H	2.7392	6.3556	1.8401
C	4.4117	6.5497	0.6637
C	2.1462	11.4051	9.8119
C	3.6659	7.6869	10.0842
Ni	9.1556	9.4421	8.6245
O	7.6722	4.3784	4.0368
O	10.8888	1.6666	3.8035
O	11.9979	4.4111	5.1094
O	6.5607	1.5003	4.8721
N	10.0205	10.5560	7.1530
N	8.3479	8.0914	7.3471
C	9.8113	12.0137	5.2748
H	9.2794	12.3506	4.5628
C	11.0911	12.4984	5.4834
C	11.8426	11.9548	6.5283
H	6.4812	12.2454	6.6834
C	8.6782	6.5009	5.5902
H	9.2398	6.1490	4.9091
C	9.1145	7.5541	6.3875
H	9.9856	7.9060	6.2457
C	9.3157	11.0319	6.1132
H	8.4477	10.6825	5.9498
C	11.2708	10.9918	7.3328
H	11.7854	10.6236	8.0407
C	7.1142	7.5704	7.5475
H	6.5664	7.9473	8.2266
C	6.6185	6.5159	6.8077
H	12.0046	6.1678	6.9773
C	7.4243	5.9737	5.8009
C	11.6392	1.1183	4.6748
C	6.9061	4.8365	4.9471
Ni	12.3958	3.0813	3.4874
O	10.6848	8.1450	9.1739
O	7.6486	10.8568	8.9407
O	8.7577	8.1123	10.2465
O	9.5733	11.0231	10.0092
N	7.0079	1.9674	2.0158
N	11.5881	4.4320	2.2100
C	6.7987	0.5097	0.1377
H	6.0392	0.1728	9.6999
C	8.0785	0.0250	0.3462
C	8.8300	0.5686	1.3911
C	11.9184	6.0225	0.4531
C	12.3547	4.9693	1.2504
H	6.9730	4.6174	1.1086
C	6.3031	1.4915	0.9761
H	11.6879	1.8409	0.8127
C	8.2582	1.5316	2.1956
H	8.7728	1.8998	2.9035
C	10.3544	4.9530	2.4103
H	9.8066	4.5761	3.0895
C	9.8587	6.0075	1.6706
H	8.9920	6.3556	1.8401
C	10.6645	6.5497	0.6637
C	8.3990	11.4051	9.8119
C	9.9187	7.6869	10.0842
C	2.6817	12.5564	4.1194
C	1.2752	11.9497	3.9759
H	2.5558	13.6506	4.2706
H	3.2207	12.3708	3.1649
C	0.5235	12.5731	2.8024
H	1.3541	10.8550	3.7979
H	0.6896	12.1340	4.9029
H	1.0707	12.3923	1.8526
H	-0.4860	12.1175	2.7226
H	0.4083	13.6675	2.9543
C	3.3550	5.9432	4.4847
C	4.7351	6.6066	4.3361
H	2.8292	6.0525	3.5113
H	3.5274	4.8656	4.6971
C	5.5401	5.9578	3.2127
H	5.3080	6.4993	5.2829
H	4.6102	7.6854	4.0978
H	5.7019	4.8796	3.4257
H	6.5292	6.4553	3.1282
H	5.0061	6.0622	2.2441
C	-0.3309	-0.0329	-1.0177
C	-1.7373	0.5738	-1.1613
H	0.2081	0.1526	-1.9722
H	-0.4568	-1.1271	-0.8666
C	-2.4890	-0.0496	-2.3348
H	-2.3230	0.3895	-0.2343
H	-1.6585	1.6685	-1.3392
H	-2.6043	-1.1440	-2.1829
H	-3.4985	0.4060	-2.4146
H	-1.9418	0.1312	-3.2846
C	6.5952	6.5802	-0.6525
C	7.9753	5.9168	-0.8010
H	6.0694	6.4709	-1.6259
H	6.7676	7.6578	-0.4401
C	8.7803	6.5656	-1.9244
H	8.5482	6.0241	0.1457
H	7.8504	4.8380	-1.0393
H	8.9421	7.6438	-1.7115
H	9.7694	6.0681	-2.0090
H	8.2463	6.4612	-2.8930
C	13.2934	12.4231	6.7821
C	14.0318	11.7607	7.9580
H	13.2722	13.5170	6.9793
H	13.8859	12.2206	5.8635
C	15.4491	12.3107	8.0985
H	14.0983	10.6636	7.7904
H	13.4849	11.9592	8.9055
H	16.0339	12.1135	7.1748
H	15.9574	11.8161	8.9528
H	15.4223	13.4053	8.2865
C	5.2121	5.9527	7.0869
C	4.4157	6.6268	8.2174
H	5.3183	4.8784	7.3525
H	4.6117	6.0498	6.1562
C	3.0454	5.9761	8.3896
H	4.2640	7.7026	7.9810
H	4.9701	6.5320	9.1765
H	2.4531	6.0683	7.4543
H	2.4938	6.4815	9.2102
H	3.1572	4.9011	8.6462
C	10.2808	0.1003	1.6450
C	11.0192	0.7627	2.8209
H	10.2596	-0.9936	1.8421
H	10.8733	0.3028	0.7263
C	12.4365	0.2127	2.9613
H	11.0857	1.8598	2.6533
H	10.4723	0.5642	3.7683
H	13.0213	0.4099	2.0376
H	12.9448	0.7073	3.8157
H	12.4097	-0.8819	3.1494
C	12.8480	6.5802	-0.6525
C	14.2281	5.9168	-0.8010
H	12.3222	6.4709	-1.6259
H	13.0204	7.6578	-0.4401
C	15.0331	6.5656	-1.9244
H	14.8010	6.0241	0.1457
H	14.1032	4.8380	-1.0393
H	15.1949	7.6438	-1.7115
H	16.0222	6.0681	-2.0090
H	14.4991	6.4612	-2.8930
