188

Ni	2.9028	9.4421	8.6245
O	1.4194	4.3784	4.0368
O	4.6360	1.6666	3.8035
O	5.7451	4.4111	5.1094
O	0.3079	1.5003	4.8721
N	3.7677	10.5560	7.1530
N	2.0951	8.0914	7.3471
C	3.5585	12.0137	5.2748
C	4.8383	12.4984	5.4834
C	5.5898	11.9548	6.5283
H	0.2284	12.2454	6.6834
C	2.4254	6.5009	5.5902
C	2.8617	7.5541	6.3875
H	3.7328	7.9060	6.2457
C	3.0629	11.0319	6.1132
H	2.1949	10.6825	5.9498
C	5.0180	10.9918	7.3328
H	5.5326	10.6236	8.0407
C	0.8614	7.5704	7.5475
H	0.3136	7.9473	8.2266
C	0.3657	6.5159	6.8077
H	5.7518	6.1678	6.9773
C	1.1715	5.9737	5.8009
C	5.3864	1.1183	4.6748
C	0.6533	4.8365	4.9471
Ni	6.1430	3.0813	3.4874
O	4.4320	8.1450	9.1739
O	1.3958	10.8568	8.9407
O	2.5049	8.1123	10.2465
O	3.3205	11.0231	10.0092
N	0.7551	1.9674	2.0158
N	5.3353	4.4320	2.2100
C	0.5459	0.5097	0.1377
H	-0.2136	0.1728	9.6999
C	1.8257	0.0250	0.3462
C	2.5772	0.5686	1.3911
C	5.6656	6.0225	0.4531
C	6.1019	4.9693	1.2504
H	0.7202	4.6174	1.1086
C	0.0503	1.4915	0.9761
H	5.4351	1.8409	0.8127
C	2.0054	1.5316	2.1956
H	2.5200	1.8998	2.9035
C	4.1016	4.9530	2.4103
H	3.5538	4.5761	3.0895
C	3.6059	6.0075	1.6706
H	2.7392	6.3556	1.8401
C	4.4117	6.5497	0.6637
C	2.1462	11.4051	9.8119
C	3.6659	7.6869	10.0842
Ni	9.1556	9.4421	8.6245
O	7.6722	4.3784	4.0368
O	10.8888	1.6666	3.8035
O	11.9979	4.4111	5.1094
O	6.5607	1.5003	4.8721
N	10.0205	10.5560	7.1530
N	8.3479	8.0914	7.3471
C	9.8113	12.0137	5.2748
C	11.0911	12.4984	5.4834
C	11.8426	11.9548	6.5283
H	6.4812	12.2454	6.6834
C	8.6782	6.5009	5.5902
C	9.1145	7.5541	6.3875
H	9.9856	7.9060	6.2457
C	9.3157	11.0319	6.1132
H	8.4477	10.6825	5.9498
C	11.2708	10.9918	7.3328
H	11.7854	10.6236	8.0407
C	7.1142	7.5704	7.5475
H	6.5664	7.9473	8.2266
C	6.6185	6.5159	6.8077
H	12.0046	6.1678	6.9773
C	7.4243	5.9737	5.8009
C	11.6392	1.1183	4.6748
C	6.9061	4.8365	4.9471
Ni	12.3958	3.0813	3.4874
O	10.6848	8.1450	9.1739
O	7.6486	10.8568	8.9407
O	8.7577	8.1123	10.2465
O	9.5733	11.0231	10.0092
N	7.0079	1.9674	2.0158
N	11.5881	4.4320	2.2100
C	6.7987	0.5097	0.1377
C	8.0785	0.0250	0.3462
C	8.8300	0.5686	1.3911
H	9.7214	0.2780	1.5463
C	11.9184	6.0225	0.4531
C	12.3547	4.9693	1.2504
H	6.9730	4.6174	1.1086
C	6.3031	1.4915	0.9761
H	11.6879	1.8409	0.8127
C	8.2582	1.5316	2.1956
H	8.7728	1.8998	2.9035
C	10.3544	4.9530	2.4103
H	9.8066	4.5761	3.0895
C	9.8587	6.0075	1.6706
H	8.9920	6.3556	1.8401
C	10.6645	6.5497	0.6637
C	8.3990	11.4051	9.8119
C	9.9187	7.6869	10.0842
O	2.8044	12.5156	4.2404
C	1.5188	12.1261	3.9179
C	1.0396	12.9238	2.7066
H	0.8412	12.3223	4.7783
H	1.5071	11.0412	3.6714
C	-0.3799	12.5289	2.3096
H	1.7215	12.7368	1.8486
H	1.0603	14.0089	2.9478
H	-0.4210	11.4510	2.0442
H	-0.6991	13.1245	1.4285
H	-1.0838	12.7261	3.1461
O	3.2280	5.9845	4.6009
C	4.5012	6.4162	4.2830
C	5.0429	5.5788	3.1260
H	5.1680	6.2977	5.1658
H	4.4688	7.4858	3.9786
C	6.4512	6.0180	2.7361
H	4.3722	5.6879	2.2460
H	5.0665	4.5082	3.4249
H	6.4488	7.0811	2.4138
H	6.8166	5.3923	1.8948
H	7.1448	5.8986	3.5956
O	3.8624	0.1319	1.5906
C	4.7158	0.5799	2.5803
C	6.0511	-0.1526	2.4638
H	4.2706	0.3754	3.5793
H	4.8850	1.6732	2.4620
C	7.0315	0.3085	3.5383
H	6.4926	0.0424	1.4622
H	5.8826	-1.2462	2.5716
H	7.2312	1.3966	3.4376
H	7.9902	-0.2407	3.4276
H	6.6196	0.1049	4.5498
O	6.4682	6.5389	-0.5363
C	7.7415	6.1074	-0.8539
C	8.2831	6.9447	-2.0110
H	7.7093	5.0377	-1.1582
H	8.4081	6.2261	0.0289
C	9.6916	6.5058	-2.4007
H	8.3065	8.0154	-1.7123
H	7.6126	6.8353	-2.8911
H	10.3851	6.6255	-1.5411
H	10.0569	7.1314	-3.2421
H	9.6895	5.4426	-2.7227
O	9.0572	12.5156	4.2404
C	7.7715	12.1262	3.9181
C	7.2923	12.9239	2.7067
H	7.7595	11.0414	3.6717
H	7.0941	12.3227	4.7785
C	5.8727	12.5293	2.3100
H	7.3133	14.0090	2.9477
H	7.9741	12.7366	1.8486
H	5.1690	12.7269	3.1465
H	5.5536	13.1248	1.4288
H	5.8313	11.4513	2.0448
O	9.4808	5.9845	4.6009
C	10.7541	6.4160	4.2832
C	11.2957	5.5787	3.1261
H	10.7219	7.4857	3.9789
H	11.4207	6.2973	5.1660
C	12.7042	6.0176	2.7365
H	11.3191	4.5080	3.4248
H	10.6252	5.6881	2.2461
H	13.3977	5.8979	3.5961
H	13.0695	5.3920	1.8951
H	12.7021	7.0808	2.4144
O	6.0446	0.0078	-0.8967
C	4.7589	0.3972	-1.2190
C	4.2797	-0.4005	-2.4305
H	4.7469	1.4820	-1.4655
H	4.0815	0.2007	-0.3586
C	2.8601	-0.0059	-2.8272
H	4.3007	-1.4856	-2.1895
H	4.9615	-0.2132	-3.2885
H	2.1564	-0.2035	-1.9906
H	2.5410	-0.6014	-3.7084
H	2.8187	1.0721	-3.0924
O	12.7210	6.5389	-0.5363
C	13.9943	6.1074	-0.8539
C	14.5359	6.9447	-2.0110
H	13.9621	5.0377	-1.1582
H	14.6609	6.2261	0.0289
C	15.9444	6.5058	-2.4007
H	14.5593	8.0154	-1.7123
H	13.8654	6.8353	-2.8911
H	16.6379	6.6255	-1.5411
H	16.3097	7.1314	-3.2421
H	15.9423	5.4426	-2.7227
