124

Ni	2.6291	8.8108	8.6948
Ni	6.2676	3.6794	3.3909
O	0.6868	4.5929	3.3955
O	4.0461	7.7874	8.8548
O	4.8793	2.6334	3.4971
O	1.2102	9.8569	8.8154
O	5.6931	4.8309	4.5998
O	2.0907	7.6473	9.8989
O	-0.2213	2.5509	4.7204
O	3.0799	9.9082	9.9902
N	3.4221	9.9695	7.4279
N	-0.0063	2.3097	2.1308
N	1.9100	7.7068	7.2998
N	5.5186	4.7801	2.0230
C	3.5257	10.9723	5.2540
C	0.0152	1.2603	-0.0393
H	3.0671	11.1313	4.2999
H	6.5113	1.2119	9.8560
C	4.7742	1.2711	5.5507
C	1.3534	11.1426	0.1334
C	5.2553	1.1574	6.8618
C	1.9865	1.1856	1.3513
H	-0.3430	10.8603	6.6643
C	1.9804	5.7974	5.8285
C	5.6086	5.9935	-0.0505
C	2.6346	6.7284	6.6663
C	6.2467	5.2740	0.9775
H	3.6796	6.5951	6.8821
H	0.2712	4.6322	0.7751
C	2.8311	10.2497	6.2302
C	-0.6561	1.9609	0.9783
H	1.8254	9.9227	6.0264
H	5.7091	2.8023	0.5398
C	4.6515	10.4964	7.7196
C	1.2810	1.9072	2.3319
H	5.1359	10.2325	8.6461
H	1.8160	2.2906	3.1879
C	0.5697	7.8124	7.0355
C	4.2036	5.1391	2.1644
H	-0.0725	8.3201	7.7163
H	3.6410	4.7749	3.0078
C	-0.0061	7.1455	5.9618
C	3.5934	6.0388	1.2778
H	5.9188	6.1673	6.8311
C	0.6883	6.1143	5.3502
C	4.2593	6.3769	0.0848
C	5.5226	2.0223	4.4986
C	1.8569	10.4620	9.8237
C	0.0069	5.3056	4.3138
C	3.3383	7.1257	9.7861
Ni	9.6017	8.7566	8.8011
Ni	-0.7359	3.5645	3.3681
O	7.6509	4.7299	3.5316
O	10.9783	7.6583	8.8273
O	11.7248	2.5610	3.6127
O	8.2265	9.8062	9.0203
O	12.6457	4.8004	4.5156
O	9.0559	7.5122	9.9354
O	6.7435	2.5787	4.6998
O	10.1327	9.7439	10.1693
N	10.4053	9.9957	7.5987
N	7.1061	2.5196	2.1127
N	8.8147	7.7994	7.3770
N	12.3810	4.5797	1.9516
C	10.3465	1.5774	6.0553
C	7.2254	1.4337	-0.0205
H	-0.7233	11.3613	9.8286
C	11.7321	1.4270	5.8282
C	8.4792	11.1620	0.2758
C	12.4497	10.8812	6.6964
C	9.0164	11.3889	1.5573
C	8.7256	6.9977	5.1110
C	12.4939	5.5891	-0.2380
H	5.9150	6.2260	9.8583
C	9.4285	7.6149	6.1679
C	13.1145	4.9509	0.8579
H	10.4277	7.9929	6.0028
H	7.2814	4.9977	0.8673
C	9.6814	10.8399	6.7981
C	6.5780	2.2771	0.8782
H	8.6072	10.7545	6.7508
H	12.2138	2.3147	0.7970
C	11.7635	10.1298	7.6547
C	8.3285	1.9844	2.4391
H	12.3083	9.6774	8.4645
H	8.7769	2.2333	3.3818
C	7.5281	7.3726	7.5631
C	11.0456	4.8653	2.0085
H	6.9993	7.6418	8.4634
H	10.4678	4.5673	2.8706
C	6.8909	6.5822	6.6148
C	10.4120	5.5540	0.9735
H	12.8337	7.3392	5.7028
H	9.3578	5.7532	1.0378
C	7.5038	6.3497	5.3916
C	11.1408	5.9949	-0.1266
C	12.4108	2.0293	4.6432
C	8.9163	10.3326	10.0389
C	6.9102	5.3927	4.4334
C	10.2624	6.9357	9.7067
C	6.1509	2.1804	7.4273
S	5.6141	3.4303	7.8887
H	7.1538	1.9027	7.7122
C	3.4434	1.1658	1.4424
S	4.1473	10.2740	1.9150
H	3.9496	2.1006	1.3513
C	2.4598	4.4032	5.8046
S	2.0479	3.4840	6.8296
H	3.2439	4.1165	5.1223
C	2.3290	6.6970	1.6725
S	2.2942	7.5962	2.7911
H	1.4392	6.5606	1.0779
C	9.7221	2.9133	5.9057
S	9.3709	3.6792	7.0702
H	9.7926	3.4276	4.9585
C	10.2843	10.7477	1.9869
S	10.3945	10.1101	3.2642
H	11.1277	10.7163	1.3248
C	9.1735	7.1953	3.7164
S	8.2638	7.7214	2.7263
H	10.2332	7.1476	3.4914
C	12.9687	5.6469	9.2841
S	12.6343	4.7224	8.2366
H	0.0420	6.1673	9.2403
