14

N         -2.06791       -1.31384        0.01393
C         -3.23603       -0.62915        0.03000
C         -0.87205       -0.67445        0.00426
C         -3.23281        0.76387        0.04280
H         -4.17420       -1.16796        0.03288
C         -2.01652        1.48089        0.04760
H         -4.18414        1.28102        0.05819
C         -0.80486        0.72569        0.01888
H          0.03833       -1.25925       -0.02555
C         -2.10422        2.98768        0.06671
O         -1.06161        3.79874        0.35487
H         -0.22265        3.50764        0.71720
O         -3.18589        3.51471       -0.14587
Cl         0.81069        1.41914       -0.05916
