140
Atoms. Timestep: 0
Ni 2.89857 9.41116 8.59265
Ni 6.17525 3.10579 3.48481
O 1.44827 4.35425 3.93374
O 4.4416 8.15245 9.05464
O 4.63665 1.84729 3.87523
O 1.36499 10.6744 9.00295
O 5.80609 4.46033 4.96242
O 2.54244 8.0327 10.0675
O 0.25117 1.69264 4.94273
O 3.23722 10.8047 10.0626
N 3.69677 10.6606 7.2416
N 0.71256 1.8642 2.11704
N 2.17217 8.14409 7.25198
N 5.44023 4.39481 2.13747
C 3.48546 12.1483 5.36301
C 0.47488 0.38955 0.2292
H 2.86453 12.5181 4.55267
H 5.86971 0.03371 9.69377
C 4.76073 0.1474 5.61481
C 1.74333 12.3699 0.47412
C 5.50345 12.1502 6.68209
C 2.49852 0.35508 1.54004
H 0.24768 12.5084 6.91993
H 3.49155 12.5067 1.77336
C 2.48363 6.6337 5.40822
C 5.72803 5.90364 0.28669
H 3.13294 6.27291 4.61605
H -0.10828 6.26667 9.7662
C 2.92756 7.68099 6.23068
C 6.1883 4.86756 1.11596
H 3.89994 8.14655 6.0889
C 2.98256 11.1359 6.19748
C -0.01036 1.40553 1.07106
H 5.26093 1.85011 0.92351
C 4.93641 11.1381 7.47507
C 1.94823 1.3719 2.3406
H 5.48559 10.7097 8.30944
H 2.50886 1.79214 3.17267
C 0.94573 7.62654 7.47302
C 4.21083 4.90458 2.35686
C 0.43859 6.57577 6.69176
C 3.68763 5.945 1.56944
H 5.70774 6.17693 6.91975
H 2.69824 6.32683 1.80071
C 1.22745 6.06471 5.65205
C 4.46338 6.45777 0.52027
C 5.3126 1.24381 4.79419
C 2.0502 11.2675 9.92158
C 0.73548 4.94016 4.83586
C 3.73174 7.56629 9.95688
Ni 9.15137 9.41116 8.59265
Ni 12.4281 3.10579 3.48481
O 7.70109 4.35425 3.93374
O 10.6944 8.15245 9.05464
O 10.8895 1.84729 3.87523
O 7.61779 10.6744 9.00295
O 12.0589 4.46033 4.96242
O 8.79524 8.0327 10.0675
O 6.50397 1.69264 4.94273
O 9.49002 10.8047 10.0626
N 9.94957 10.6606 7.2416
N 6.96536 1.8642 2.11704
N 8.42499 8.14409 7.25198
N 11.693 4.39481 2.13747
C 9.73826 12.1483 5.36301
C 6.72768 0.38955 0.2292
H 9.11733 12.5181 4.55267
H 12.1225 0.03371 9.69377
C 11.0135 0.1474 5.61481
C 7.99613 12.3699 0.47412
C 11.7562 12.1502 6.68209
C 8.75132 0.35508 1.54004
H 6.50047 12.5084 6.91993
H 9.74435 12.5067 1.77336
C 8.73644 6.6337 5.40822
C 11.9808 5.90364 0.28669
H 9.38574 6.27291 4.61605
H 6.14452 6.26667 9.7662
C 9.18036 7.68099 6.23068
C 12.4411 4.86756 1.11596
H 10.1527 8.14655 6.0889
H 7.16869 4.41889 0.97634
C 9.23536 11.1359 6.19748
C 6.24244 1.40553 1.07106
C 11.1892 11.1381 7.47507
C 8.20102 1.3719 2.3406
H 11.7384 10.7097 8.30944
C 7.19853 7.62654 7.47302
C 10.4636 4.90458 2.35686
H 9.88885 4.47744 3.17528
C 6.69139 6.57577 6.69176
C 9.94043 5.945 1.56944
H 11.9605 6.17693 6.91975
H 8.95104 6.32683 1.80071
C 7.48025 6.06471 5.65205
C 10.7162 6.45777 0.52027
C 11.5654 1.24381 4.79419
C 8.303 11.2675 9.92158
C 6.98827 4.94016 4.83586
C 9.98454 7.56629 9.95688
C 1.57333 10.5275 5.93936
C 1.01371 9.55785 6.68309
H 0.96295 10.8656 5.12836
H 1.48929 9.10278 7.5376
H 0.02291 9.19764 6.42314
C 11.0951 2.03742 0.81856
C 10.5519 3.01148 1.56868
H 10.4782 1.71353 0.00671
H 11.0359 3.45419 2.42494
H 9.56647 3.38862 1.31242
C 0.09593 8.23029 8.63017
C 0.49814 9.23521 9.42693
H 11.6229 7.85937 8.85224
H 1.45514 9.72562 9.34268
H -0.16733 9.58858 10.2088
C 3.36975 4.30312 3.52362
C 3.78429 3.30888 4.32743
H 2.38869 4.66703 3.74641
H 4.74538 2.82647 4.24359
H 3.12517 2.95629 5.115
C 7.82613 10.5275 5.93936
C 7.26651 9.55785 6.68309
H 7.21575 10.8656 5.12836
H 7.74209 9.10278 7.5376
H 6.27571 9.19764 6.42314
C 9.0191 1.96646 3.52712
C 8.57766 2.9368 4.34568
H 10.0049 1.61725 3.75266
H 7.60817 3.40207 4.26161
H 9.2222 3.28665 5.14642
C 6.34873 8.23029 8.63016
C 6.75096 9.23521 9.42692
H 5.37012 7.85939 8.85224
H 7.70794 9.72563 9.34268
H 6.08547 9.58859 10.2088
C 1.33481 4.22856 0.87896
C 1.85464 3.23489 1.61981
H 1.97057 4.56335 0.08631
H 1.34984 2.77927 2.45708
H 2.84186 2.8544 1.37563
140
Atoms. Timestep: 333
Ni 2.28104 8.91462 8.84192
Ni 6.18426 3.57923 3.67435
O 0.0824388 4.43645 3.80238
O 3.71771 7.92291 8.96343
O 4.79419 2.52203 3.70428
O 0.891825 9.90867 8.9297
O 5.69781 4.6677 4.9957
O 1.84507 7.7888 10.1539
O -1.0236 2.26383 4.79475
O 2.74503 10.11 10.0987
N 3.0506 10.0769 7.47505
N -0.639722 2.36356 2.21503
N 1.47967 7.69485 7.58263
N 5.3972 4.78159 2.39248
C 3.38068 10.9948 5.25936
C -0.455897 0.994162 0.233956
H 3.04281 11.0902 4.2382
H 6.34443 1.05869 9.70608
C 4.60302 1.04663 5.64674
C 0.90262 11.302 0.495888
C 4.95457 0.983875 6.9843
C 1.4189 1.17909 1.70248
H 13.0396 1.75998 7.25165
H 2.43654 11.4492 1.97879
C 1.39637 6.58985 5.46104
C 5.09259 5.58236 0.14207
H 1.67856 6.73449 4.43516
H 12.5263 5.6688 9.37541
C 2.13549 7.23861 6.47691
C 5.8672 4.90922 1.11164
H 3.14895 7.56233 6.28162
C 2.56787 10.3186 6.19976
C -1.23825 1.82257 1.06608
H 5.29392 2.19518 1.12903
C 4.22532 10.6845 7.85325
C 0.616967 1.90687 2.575
H 4.6327 10.4902 8.82932
H 1.03651 2.18435 3.52828
C 0.18245 7.21708 7.8277
C 4.26053 5.50096 2.7511
C -0.345296 6.1765 7.04137
C 3.86464 6.57672 1.9295
H 6.0169 5.98844 7.22966
H 3.16484 7.31606 2.30582
C 0.181591 5.94819 5.78213
C 4.07655 6.45385 0.559571
C 5.40927 1.84233 4.6649
C 1.49638 10.6015 9.87374
C -0.545706 5.09127 4.77704
C 3.09349 7.28234 9.95256
Ni 9.72961 8.9531 8.83266
Ni 13.7151 3.51663 3.57692
O 7.54989 4.64202 3.8374
O 11.1684 7.97276 8.98921
O 12.2277 2.57002 3.6322
O 8.32122 9.97133 8.89605
O 13.2859 4.63073 4.92367
O 9.29219 7.87093 10.1853
O 6.6406 2.38034 4.91705
O 10.188 10.1866 10.0389
N 10.4911 10.0584 7.41088
N 7.02514 2.48751 2.33476
N 8.94329 7.68494 7.62321
N 13.0482 4.84678 2.27459
C 11.0403 10.6044 5.10813
C 7.03954 1.24316 0.27591
H 10.8814 10.429 4.05324
H -1.07076 11.2389 9.64435
C 12.0472 0.966809 5.52807
C 8.36348 11.3582 0.51003
C 12.2609 1.10602 6.89041
C 8.90884 1.0856 1.75583
H 5.80132 1.54229 7.35692
H 9.88344 11.2024 2.00135
C 9.05015 6.17791 5.75841
C 12.5631 5.70511 0.0576842
H 9.58351 5.85758 4.87598
H 5.13258 5.51592 9.48092
C 9.69155 7.00771 6.69519
C 13.4644 5.08606 0.949185
H 10.7495 7.22716 6.57901
H 6.84484 4.53484 0.845524
C 10.1692 10.0094 6.06134
C 6.3461 1.97158 1.26487
C 11.6056 10.7774 7.78014
C 8.33837 2.07734 2.55806
H 12.0261 10.6593 8.76682
C 7.62023 7.27926 7.84413
C 11.9326 5.53874 2.71785
H 11.5452 5.36738 3.70506
C 7.04487 6.28572 7.05675
C 11.1936 6.38748 1.88338
H -1.29619 5.73204 7.30755
H 10.3888 6.98459 2.30167
C 7.68454 5.86955 5.91669
C 11.4664 6.42067 0.527246
C 12.829 1.80071 4.54981
C 8.93309 10.6736 9.83495
C 6.91835 5.23168 4.82586
C 10.537 7.36344 9.99561
C 1.24361 9.87168 5.76573
C 0.139393 10.4295 6.23346
H 1.17573 9.23386 4.89409
H 0.192155 11.2555 6.93276
H -0.818108 10.0759 5.87938
C 12.7202 2.45776 0.345392
C 11.4863 2.46673 0.792646
H 12.6093 2.62104 9.65917
H 11.2771 2.9868 1.68558
H 10.685 2.4453 0.0654467
C -0.81664 8.05938 8.522
C -0.984845 8.02267 9.84758
H 13.68 8.73741 7.93622
H -0.235242 7.30094 0.0742731
H 13.4295 8.71282 10.3173
C 3.13279 4.81298 3.42857
C 3.15636 4.35668 4.68311
H 2.17685 5.09342 3.0768
H 3.51476 4.98358 5.48713
H 2.47229 3.56266 4.95798
C 8.84335 9.58062 5.59883
C 7.74181 10.1911 6.01173
H 8.77289 8.85041 4.8003
H 7.79877 11.0552 6.6651
H 6.78486 9.84731 5.65374
C 9.2668 2.91617 3.33504
C 9.46697 2.71665 4.63947
H 9.66604 3.81516 2.86887
H 9.00029 1.88437 5.1457
H 10.049 3.43264 5.21195
C 6.67697 8.1154 8.60156
C 6.53371 8.01286 9.92699
H 6.10219 8.84641 8.05844
H 7.25385 7.22388 0.097494
H 6.12514 8.70811 0.0703678
C -0.423036 4.49748 0.300741
C 0.790299 4.70754 0.743784
H -0.736675 4.19338 9.64369
H 1.00892 4.3473 1.69504
H 1.60866 4.72391 0.0335923
140
Atoms. Timestep: 3578
Ni 2.28117 8.97178 8.85562
Ni 6.18448 3.51444 3.60633
O 0.0560377 4.57745 3.78909
O 3.69716 7.93847 8.93437
O 4.79688 2.46266 3.68877
O 0.915997 9.99791 8.98975
O 5.70134 4.63984 4.88647
O 1.83635 7.81111 10.1376
O -0.984501 2.4297 4.91769
O 2.78368 10.1275 10.1516
N 3.05112 10.1498 7.50992
N -0.589292 2.40071 2.3372
N 1.43401 7.81099 7.55631
N 5.38665 4.68428 2.29305
C 3.45706 10.9007 5.24661
C -0.370042 1.19129 0.263774
H 3.14465 10.939 4.2116
H 6.43764 1.14935 9.58546
C 4.65512 0.996384 5.63624
C 0.975166 11.4223 0.549149
C 4.98422 11.5214 6.98031
C 1.4868 1.26984 1.77616
H 12.9403 1.93584 7.40002
H 2.51043 1.03548 2.03682
C 1.35629 6.70544 5.42739
C 5.13896 5.60215 0.0775759
H 1.73411 6.70587 4.41492
H 12.8201 5.80883 9.43504
C 2.09134 7.34203 6.45317
C 5.91107 4.91159 1.04739
H 3.12628 7.60803 6.28529
C 2.60312 10.3263 6.21344
C -1.15843 1.92486 1.17115
H 5.31945 2.26258 0.985049
C 4.22553 10.7662 7.88285
C 0.669978 1.95609 2.68395
H 4.62939 10.596 8.8637
H 1.07448 2.19831 3.65372
C 0.110353 7.39601 7.76933
C 4.17005 5.26772 2.61164
C -0.453664 6.39558 6.95811
C 3.70463 6.35041 1.84422
H 5.96733 6.08893 7.02635
H 2.90985 6.98002 2.22361
C 0.106414 6.13086 5.71949
C 4.05221 6.40128 0.496893
C 5.42865 1.8029 4.64885
C 1.54306 10.6576 9.93973
C -0.606273 5.26771 4.72063
C 3.06935 7.27415 9.90644
Ni 9.73171 8.89714 8.79607
Ni 13.7151 3.60047 3.6286
O 7.57374 4.56707 3.72884
O 11.1724 7.90527 8.91514
O 12.266 2.62419 3.71151
O 8.33109 9.90528 8.89302
O 13.2401 4.77174 4.89261
O 9.28976 7.74282 10.0805
O 6.65496 2.35199 4.88116
O 10.1682 10.0617 10.0867
N 10.4976 10.0894 7.43355
N 6.99056 2.38081 2.30246
N 8.9384 7.69159 7.51439
N 12.9863 4.80461 2.2847
C 11.1612 10.65 5.16071
C 7.0505 1.22899 0.203244
H 11.0335 10.5109 4.09472
H -1.01946 11.4294 9.69044
C 12.1031 1.05955 5.62919
C 8.29663 11.1895 0.537595
C 12.2185 1.234 6.99945
C 8.71501 11.293 1.84879
H 5.84655 1.54922 7.33076
H 9.539 10.6949 2.21047
C 9.05651 6.17064 5.6534
C 12.7147 5.75797 0.0783521
H 9.61629 5.79191 4.81519
H 5.20161 5.57641 9.42019
C 9.69186 7.00224 6.60064
C 13.5289 5.13158 1.05451
H 10.7521 7.19764 6.51302
H 6.89305 4.54125 0.789266
C 10.2488 10.04 6.06666
C 6.34089 1.96126 1.17401
C 11.5295 10.9024 7.86949
C 8.23817 1.84544 2.59774
H 11.9034 10.8166 8.87319
C 7.59929 7.31223 7.69826
C 11.7492 5.31832 2.61077
H 11.3032 5.06434 3.55483
C 7.01159 6.34918 6.88283
C 11.0083 6.10478 1.71811
H -1.4348 6.0012 7.19657
H 10.0522 6.51045 2.02685
C 7.68099 5.88789 5.77683
C 11.4828 6.3253 0.435833
C 12.8746 1.92989 4.67463
C 8.91279 10.5543 9.87611
C 6.9312 5.18896 4.7034
C 10.5299 7.22869 9.86948
C 1.21791 10.0501 5.82731
C 0.211259 10.7072 6.37454
H 1.02265 9.40435 4.97737
H 0.383635 11.5305 7.06186
H -0.789996 10.3967 6.14059
C 12.6452 2.3969 0.69571
C 11.5334 1.83918 1.11566
H 12.3756 2.99801 10.1775
H 11.5624 1.042 1.8495
H 10.596 2.16839 0.691078
C -0.862219 8.26638 8.46732
C -1.03721 8.2232 9.79058
H 13.6103 8.91943 7.87681
H -0.272234 7.51455 0.0153965
H 13.3492 8.88624 10.263
C 3.14062 4.44573 3.27126
C 2.9891 4.41723 4.59818
H 2.6135 3.72511 2.66862
H 3.46721 5.15406 5.22911
H 2.33156 3.68531 5.05427
C 8.94969 9.597 5.52379
C 7.80577 10.1253 5.94626
H 8.93596 8.92436 4.6711
H 7.80429 10.918 6.68428
H 6.86889 9.78202 5.52317
C 9.25313 2.67961 3.26362
C 9.46349 2.62536 4.58038
H 9.75278 3.44148 2.6805
H 8.98505 1.88032 5.18896
H 10.1261 3.34072 5.05395
C 6.66155 8.1203 8.49432
C 6.54139 7.97534 9.81613
H 6.0708 8.86791 7.98688
H 7.26662 7.16463 -0.0506769
H 6.13428 8.64988 -0.00530919
C -0.247605 4.66615 0.640027
C 0.847238 5.2469 1.08984
H -0.397241 4.01402 10.16
H 0.79152 6.04758 1.82038
H 1.80034 4.93626 0.688265
140
Atoms. Timestep: 3580
Ni 2.28403 8.97089 8.85471
Ni 6.18449 3.51534 3.60671
O 0.0606114 4.578 3.78942
O 3.69896 7.93792 8.93344
O 4.79793 2.4639 3.68912
O 0.919873 9.99668 8.98881
O 5.7017 4.64037 4.88653
O 1.83952 7.8106 10.1364
O -0.979164 2.43096 4.91774
O 2.78615 10.1262 10.1504
N 3.05343 10.1486 7.50935
N -0.584222 2.40198 2.33788
N 1.43751 7.81048 7.55572
N 5.38727 4.6848 2.29374
C 3.45909 10.8992 5.24658
C -0.365111 1.19296 0.26496
H 3.14692 10.9375 4.21182
H 6.4374 1.15103 9.58438
C 4.65625 11.5177 5.63612
C 0.979091 11.4206 0.550266
C 4.98509 11.5197 6.97986
C 1.49033 1.27148 1.77697
H 12.9352 1.93726 7.39947
H 2.51319 1.03719 2.03757
C 1.35988 6.7053 5.42732
C 5.13979 5.60237 0.0788069
H 1.73742 6.70572 4.4151
H 12.8151 5.80898 9.43399
C 2.09437 7.34168 6.45285
C 5.91131 4.91203 1.04839
H 3.12854 7.60758 6.28501
C 2.60577 10.325 6.21317
C -1.15292 1.92628 1.17212
H 5.32013 2.26389 0.986059
C 4.22695 10.7648 7.88218
C 0.674107 1.9575 2.68454
H 4.6305 10.5946 8.86279
H 1.07829 2.19964 3.65408
C 0.114842 7.39564 7.76869
C 4.17157 5.26805 2.61226
C -0.448745 6.39554 6.95767
C 3.7065 6.35038 1.84502
H 5.96746 6.08899 7.02589
H 2.91232 6.97979 2.22432
C 0.110928 6.1309 5.71934
C 4.05384 6.40123 0.498022
C 5.42922 1.80437 4.64897
C 1.54645 10.6562 9.93856
C -0.601217 5.26803 4.72073
C 3.07161 7.27382 9.90528
Ni 9.72902 8.89628 8.79518
Ni 13.7095 3.60135 3.62896
O 7.57271 4.56763 3.72918
O 11.1686 7.90473 8.91422
O 12.2615 2.62538 3.71186
O 8.32944 9.90408 8.89211
O 13.2348 4.77223 4.89267
O 9.28738 7.74234 10.0793
O 6.6546 2.35327 4.88122
O 10.1652 10.0604 10.0855
N 10.4944 10.0881 7.43299
N 6.98999 2.38209 2.30315
N 8.93632 7.69113 7.51381
N 12.9813 4.80509 2.28539
C 11.1575 10.6485 5.16071
C 7.0499 1.23065 0.204444
H 11.0299 10.5095 4.09498
H -1.01415 11.4277 9.68934
C 12.0986 1.06126 5.62907
C 8.2951 11.1879 0.538714
C 12.2139 1.23566 6.99899
C 8.71316 11.2913 1.84959
H 5.84677 1.55077 7.33022
H 9.53652 10.6934 2.21118
C 9.05436 6.17067 5.65327
C 12.7099 5.75814 0.079583
H 9.61373 5.79207 4.81527
H 5.20229 5.57664 9.41915
C 9.68922 7.002 6.60028
C 13.5235 5.13196 1.05551
H 10.7487 7.19733 6.51268
H 6.89256 4.54182 0.790324
C 10.2458 10.0387 6.06643
C 6.34081 1.96267 1.17497
C 11.5255 10.9009 7.86883
C 8.23666 1.84689 2.59835
H 11.8991 10.8151 8.87228
C 7.5982 7.31189 7.69763
C 11.7451 5.31863 2.61138
H 11.2994 5.06474 3.55521
C 7.01095 6.34915 6.88241
C 11.0047 6.10483 1.71894
H -1.42915 6.00129 7.19607
H 10.0494 6.51037 2.0276
C 7.67986 5.88801 5.77667
C 11.4789 6.32528 0.436976
C 12.8696 1.93132 4.67474
C 8.9107 10.5529 9.87496
C 6.93064 5.18932 4.7035
C 10.5266 7.22838 9.86833
C 1.2216 10.0488 5.82715
C 0.215689 10.7058 6.37424
H 1.02649 9.40332 4.97741
H 0.387928 1.00921 7.06139
H -0.784818 10.3953 6.14035
C 12.6404 2.39817 0.696791
C 11.5294 1.84063 1.11664
H 12.3709 2.99908 10.1762
H 11.5584 1.04371 1.8503
H 10.5928 2.16973 0.69216
C -0.857013 8.26573 8.46651
C -1.03188 8.22255 9.78944
H 13.6047 8.91856 7.87614
H -0.267374 7.51414 0.0166427
H 13.3438 8.88537 10.2617
C 3.1429 4.44632 3.27171
C 2.99147 4.41783 4.59831
H 2.61618 3.72595 2.66922
H 3.46923 5.15442 5.22909
H 2.33443 3.68616 5.05429
C 8.94761 9.59591 5.52369
C 7.80455 10.1241 5.94607
H 8.9339 8.92349 4.67121
H 7.80306 10.9165 6.68391
H 6.86837 9.78086 5.52307
C 9.25086 2.68078 3.26408
C 9.46105 2.62655 4.58051
H 9.75014 3.4424 2.6811
H 8.98296 1.88175 5.18895
H 10.1232 3.34168 5.05397
C 6.66115 8.11969 8.4935
C 6.54106 7.97477 9.815
H 6.07084 8.86706 7.98619
H 7.26586 7.16433 -0.0494147
H 6.13436 8.6491 -0.004058
C -0.24277 4.66668 0.641121
C 0.851252 5.24724 1.09082
H -0.3924 4.01476 10.1587
H 0.795567 6.04765 1.82119
H 1.80365 4.93669 0.689347
140
Atoms. Timestep: 5284
Ni 2.2842 8.97085 8.85491
Ni 6.1849 3.5153 3.60711
O 0.0611971 4.57902 3.78915
O 3.69962 7.93742 8.93308
O 4.79724 2.46392 3.689
O 0.919757 9.99698 8.9891
O 5.70182 4.63994 4.88732
O 1.83924 7.81075 10.1369
O -0.977917 2.43128 4.9175
O 2.78774 10.1262 10.1504
N 3.05348 10.1484 7.50913
N -0.583289 2.40253 2.33766
N 1.43692 7.81059 7.55635
N 5.38794 4.68537 2.29461
C 3.45964 10.8971 5.24555
C -0.364812 1.19273 0.265006
H 3.14792 10.9338 4.21028
H 6.43715 1.15472 9.5831
C 4.65673 11.5171 5.63535
C 0.980392 11.421 0.550112
C 4.98518 11.521 6.97944
C 1.49242 1.27182 1.77687
H 12.9334 1.94164 7.39854
H 2.51625 1.03787 2.03709
C 1.35952 6.7064 5.42735
C 5.14081 5.60226 0.0792066
H 1.73734 6.7076 4.41489
H 12.8144 5.80796 9.43279
C 2.0945 7.34155 6.45353
C 5.9128 4.91253 1.04919
H 3.12965 7.60705 6.28613
C 2.60556 10.3239 6.21248
C -1.1529 1.92609 1.17213
H 5.31846 2.26534 0.986357
C 4.22718 10.7659 7.88207
C 0.675716 1.9576 2.68467
H 4.63151 10.5958 8.86266
H 1.08009 2.19946 3.65455
C 0.113346 7.39563 7.76949
C 4.17194 5.26961 2.61345
C -0.450689 6.39595 6.95766
C 3.7073 6.35222 1.84583
H 5.96729 6.08531 7.02823
H 2.91315 6.9827 2.22509
C 0.109806 6.13185 5.71912
C 4.05461 6.40188 0.498415
C 5.42946 1.8037 4.6484
C 1.5475 10.6567 9.9385
C -0.601855 5.26889 4.72039
C 3.07182 7.27348 9.90529
Ni 9.72893 8.8969 8.79515
Ni 13.7097 3.6016 3.62864
O 7.57423 4.56746 3.72979
O 11.1693 7.90532 8.91456
O 12.2615 2.62493 3.71106
O 8.32858 9.90495 8.89131
O 13.2337 4.77225 4.89241
O 9.2864 7.74336 10.0796
O 6.65546 2.35272 4.8811
O 10.1655 10.0614 10.0852
N 10.4945 10.0884 7.43249
N 6.99004 2.38231 2.30329
N 8.93645 7.69121 7.51432
N 12.9811 4.80516 2.285
C 11.1598 10.6462 5.15989
C 7.04886 1.23175 0.203973
H 11.0336 10.5055 4.09392
H -1.01419 11.4276 9.68912
C 12.0995 1.06124 5.62827
C 8.29421 11.1876 0.538396
C 12.2129 1.23825 6.99823
C 8.71234 11.2894 1.84978
H 5.84691 1.55337 7.32966
H 9.53549 10.6901 2.21132
C 9.05611 6.16935 5.65484
C 12.7093 5.75752 0.0787458
H 9.61589 5.79134 4.81647
H 5.20342 5.57595 9.4193
C 9.69067 7.00137 6.60166
C 13.5237 5.13202 1.05481
H 10.7508 7.19734 6.51411
H 6.89499 4.54246 0.791465
C 10.2469 10.037 6.06545
C 6.33978 1.96342 1.17502
C 11.5248 10.9032 7.86848
C 8.23675 1.84549 2.59892
H 11.8989 10.8183 8.87215
C 7.59783 7.31085 7.69883
C 11.7441 5.31878 2.6112
H 11.298 5.06439 3.55498
C 7.01131 6.34646 6.88457
C 11.0033 6.10508 1.71876
H -1.432 6.0017 7.19556
H 10.0474 6.511 2.02753
C 7.68091 5.88617 5.77832
C 11.4779 6.3251 0.436536
C 12.8705 1.93083 4.67389
C 8.9103 10.554 9.87431
C 6.93151 5.18895 4.70446
C 10.5263 7.22904 9.86857
C 1.22035 10.048 5.8263
C 0.213694 10.704 6.37473
H 1.02497 9.40297 4.97587
H 0.385905 1.00791 7.06179
H -0.787337 10.3917 6.14242
C 12.6399 2.39867 0.696142
C 11.5278 1.8417 1.11583
H 12.371 2.99902 10.1748
H 11.5562 1.04455 1.84968
H 10.5908 2.17153 0.691019
C -0.859137 8.26585 8.46791
C -1.03304 8.22345 9.79136
H 13.6013 8.91821 7.87758
H -0.268102 7.51486 0.018674
H 13.3424 8.88672 10.2639
C 3.14204 4.44803 3.27276
C 2.991 4.4183 4.59975
H 2.6152 3.72761 2.66983
H 3.46898 5.15477 5.23117
H 2.33385 3.68583 5.05546
C 8.94818 9.59372 5.52179
C 7.80383 10.1215 5.94375
H 8.93513 8.92111 4.66906
H 7.80161 10.914 6.68185
H 6.86731 9.77765 5.52023
C 9.2524 2.67877 3.26476
C 9.46214 2.62516 4.58166
H 9.7515 3.44104 2.68181
H 8.9841 1.87997 5.19029
H 10.1241 3.34111 5.0553
C 6.65914 8.11998 8.49261
C 6.53873 7.97838 9.81485
H 6.06872 8.86642 7.9832
H 7.26355 7.16892 -0.0472377
H 6.13194 8.65472 -0.0057889
C -0.241909 4.6662 0.639912
C 0.853144 5.2465 1.08942
H -0.391923 4.01432 10.1571
H 0.797852 6.04712 1.82003
H 1.80601 4.93529 0.687733
140
Atoms. Timestep: 5287
Ni 2.28651 8.97034 8.85488
Ni 6.18489 3.51582 3.60712
O 0.0649634 4.57934 3.78915
O 3.70109 7.9371 8.93305
O 4.79806 2.46463 3.689
O 0.922878 9.99628 8.98907
O 5.70206 4.64024 4.88733
O 1.84178 7.81046 10.1369
O -0.973529 2.43201 4.91751
O 2.78976 10.1254 10.1504
N 3.05534 10.1477 7.50911
N -0.579137 2.40326 2.33768
N 1.43976 7.8103 7.55634
N 5.38844 4.68567 2.29463
C 3.46128 10.8962 5.24555
C -0.360767 1.19369 0.265037
H 3.14976 10.933 4.21029
H 6.43691 1.15569 9.58307
C 4.65763 11.5161 5.63534
C 0.983609 11.42 0.550138
C 4.98587 11.52 6.97943
C 1.49532 1.27276 1.7769
H 12.9292 1.94247 7.39853
H 2.51852 1.03885 2.03711
C 1.36244 6.70632 5.42735
C 5.14149 5.60238 0.0792383
H 1.74005 6.70752 4.41489
H 12.8102 5.80805 9.43276
C 2.09698 7.34135 6.45352
C 5.913 4.91278 1.04921
H 3.13149 7.6068 6.28612
C 2.6077 10.3232 6.21247
C -1.14839 1.92691 1.17215
H 5.319 2.26609 0.986381
C 4.22832 10.7651 7.88206
C 0.679103 1.95841 2.68469
H 4.63238 10.595 8.86264
H 1.08321 2.20023 3.65456
C 0.116993 7.39541 7.76948
C 4.17318 5.26981 2.61347
C -0.446693 6.39592 6.95765
C 3.70882 6.35221 1.84585
H 5.96736 6.08534 7.02822
H 2.91516 6.98257 2.22511
C 0.113492 6.13187 5.71911
C 4.05595 6.40186 0.49844
C 5.4299 1.80453 4.64841
C 1.55024 10.6559 9.93848
C -0.597721 5.26908 4.7204
C 3.07364 7.27328 9.90526
Ni 9.72669 8.8964 8.79513
Ni 13.7051 3.6021 3.62864
O 7.5734 4.56778 3.72979
O 11.1662 7.90501 8.91453
O 12.2577 2.62562 3.71106
O 8.32717 9.90427 8.89128
O 13.2293 4.77253 4.89242
O 9.28438 7.74308 10.0796
O 6.65517 2.35346 4.88111
O 10.163 10.0607 10.0852
N 10.4918 10.0876 7.43248
N 6.98956 2.38305 2.30331
N 8.9347 7.69095 7.5143
N 12.977 4.80543 2.28502
C 11.1567 10.6454 5.15989
C 7.04836 1.2327 0.204003
H 11.0306 10.5047 4.09392
H -1.00988 11.4266 9.68909
C 12.0958 1.06222 5.62826
C 8.29295 11.1867 0.538421
C 12.2092 1.2392 6.99822
C 8.71082 11.2885 1.8498
H 5.84707 1.55426 7.32965
H 9.53345 10.6892 2.21134
C 9.05432 6.16937 5.65484
C 12.7053 5.75761 0.078778
H 9.61377 5.79143 4.81646
H 5.20394 5.57608 9.41927
C 9.6885 7.00123 6.60165
C 13.5192 5.13223 1.05483
H 10.748 7.19717 6.5141
H 6.89459 4.54278 0.791491
C 10.2444 10.0363 6.06543
C 6.33969 1.96423 1.17504
C 11.5215 10.9023 7.86846
C 8.23551 1.84632 2.59894
H 11.8953 10.8175 8.87212
C 7.59689 7.31065 7.69882
C 11.7407 5.31896 2.61122
H 11.2949 5.06462 3.55499
C 7.01074 6.34644 6.88456
C 11.0004 6.10512 1.71879
H -1.42741 6.00175 7.19555
H 10.0451 6.51095 2.02755
C 7.67997 5.88624 5.77832
C 11.4747 6.32509 0.436562
C 12.8664 1.93164 4.67389
C 8.90854 10.5532 9.87428
C 6.93103 5.18916 4.70447
C 10.5235 7.22885 9.86855
C 1.22335 10.0473 5.8263
C 0.217297 10.7031 6.37472
H 1.0281 9.40238 4.97587
H 0.389403 1.00891 7.06178
H -0.783121 10.3909 6.14242
C 12.636 2.39941 0.69617
C 11.5246 1.84254 1.11585
H 12.3671 2.99964 10.1748
H 11.553 1.04553 1.8497
H 10.5881 2.1723 0.691044
C -0.854905 8.26546 8.46789
C -1.02872 8.22308 9.79133
H 13.5967 8.91772 7.87756
H -0.264109 7.51462 0.0187085
H 13.3379 8.88623 10.2639
C 3.14389 4.44838 3.27278
C 2.99293 4.41865 4.59975
H 2.61739 3.72809 2.66985
H 3.47062 5.15498 5.23117
H 2.33617 3.68631 5.05546
C 8.94645 9.59309 5.52178
C 7.80279 10.1207 5.94375
H 8.93343 8.9206 4.66906
H 7.80057 10.9131 6.68184
H 6.86685 9.77699 5.52023
C 9.25053 2.67944 3.26477
C 9.46011 2.62584 4.58166
H 9.74932 3.44157 2.68182
H 8.98236 1.88079 5.19029
H 10.1217 3.34166 5.0553
C 6.65876 8.11963 8.49259
C 6.53842 7.97806 9.81483
H 6.06872 8.86594 7.98318
H 7.26294 7.16874 -0.047203
H 6.13201 8.65427 -0.00575354
C -0.237944 4.6665 0.63994
C 0.856443 5.24669 1.08945
H -0.387991 4.01474 10.1571
H 0.801166 6.04716 1.82006
H 1.80873 4.93553 0.687758
140
Atoms. Timestep: 7099
Ni 2.28667 8.97008 8.85488
Ni 6.1853 3.51595 3.60753
O 0.0653883 4.58005 3.78901
O 3.70159 7.93633 8.93267
O 4.79737 2.46505 3.68919
O 0.92282 9.99644 8.98923
O 5.70252 4.64016 4.88778
O 1.84158 7.81044 10.137
O -0.972658 2.43201 4.91683
O 2.79112 10.1251 10.1501
N 3.05557 10.1472 7.50889
N -0.578201 2.40364 2.33735
N 1.43908 7.81017 7.55679
N 5.38915 4.68639 2.29548
C 3.46111 10.8954 5.24525
C -0.360528 1.19334 0.265252
H 3.14952 10.9314 4.20992
H 6.43627 1.15911 9.5825
C 4.65766 11.516 5.63498
C 0.984708 11.4201 0.549956
C 4.98604 11.5209 6.97903
C 1.49718 1.27296 1.77646
H 12.9273 1.94645 7.39707
H 2.52113 1.03915 2.03636
C 1.36189 6.70719 5.42752
C 5.14245 5.60216 0.0798695
H 1.73979 6.7091 4.41508
H 12.81 5.80721 9.43233
C 2.09682 7.34114 6.45414
C 5.91433 4.91323 1.05018
H 3.13212 7.60628 6.28713
C 2.6073 10.3225 6.21231
C -1.14826 1.92668 1.17226
H 5.31747 2.26753 0.987058
C 4.22888 10.7654 7.88168
C 0.680686 1.95857 2.68437
H 4.63374 10.5951 8.86197
H 1.08504 2.20015 3.65431
C 0.115403 7.39556 7.76975
C 4.17361 5.27136 2.61436
C -0.449008 6.39683 6.95705
C 3.70954 6.35379 1.84629
H 5.9677 6.0821 7.02982
H 2.91587 6.98502 2.22533
C 0.112214 6.13272 5.7188
C 4.05666 6.40231 0.498765
C 5.42983 1.80445 4.64818
C 1.55115 10.656 9.93827
C -0.598404 5.26948 4.72008
C 3.07381 7.27279 9.90513
Ni 9.72668 8.89703 8.7951
Ni 13.7053 3.60209 3.62818
O 7.57498 4.56761 3.73038
O 11.167 7.90586 8.91498
O 12.2576 2.62494 3.71011
O 8.32621 9.90487 8.89071
O 13.2283 4.7722 4.89188
O 9.2839 7.74412 10.0797
O 6.65574 2.35321 4.88097
O 10.1631 10.0617 10.0846
N 10.4918 10.088 7.43208
N 6.98948 2.38315 2.30359
N 8.9351 7.69089 7.51484
N 12.9768 4.80536 2.28465
C 11.1583 10.6433 5.15943
C 7.04726 1.23391 0.203843
H 11.0332 10.5009 4.09351
H -1.01009 11.4262 9.68938
C 12.0961 1.06219 5.62742
C 8.29196 11.1866 0.538095
C 12.208 1.24159 6.99716
C 8.71002 11.287 1.84966
H 5.84735 1.55603 7.32907
H 9.53248 10.6865 2.21099
C 9.05626 6.16855 5.65623
C 12.7052 5.75723 0.0784478
H 9.61618 5.79116 4.81779
H 5.20499 5.57514 9.4199
C 9.69009 7.00086 6.60297
C 13.5195 5.13215 1.0545
H 10.7501 7.19738 6.51561
H 6.89667 4.54326 0.792827
C 10.2451 10.0349 6.06493
C 6.33868 1.96502 1.17538
C 11.5207 10.9047 7.86788
C 8.2355 1.84508 2.59925
H 11.8946 10.8212 8.87166
C 7.59693 7.30955 7.69967
C 11.74 5.31909 2.61083
H 11.2936 5.06428 3.55426
C 7.01148 6.34415 6.88608
C 10.9997 6.10583 1.71863
H -1.43068 6.00306 7.19427
H 10.0439 6.51216 2.0274
C 7.68131 5.88486 5.77956
C 11.4743 6.32545 0.436428
C 12.8669 1.93098 4.67281
C 8.90793 10.5541 9.87366
C 6.93218 5.18891 4.70519
C 10.5236 7.22984 9.86889
C 1.22207 10.0467 5.82636
C 0.215483 10.7019 6.37565
H 1.02651 9.40204 4.97568
H 0.387659 1.00806 7.0624
H -0.785402 10.3883 6.14476
C 12.6356 2.39967 0.696007
C 11.5234 1.84288 1.11521
H 12.367 2.99974 10.1744
H 11.5515 1.04537 1.84868
H 10.5865 2.17316 0.690281
C -0.856692 8.2656 8.46899
C -1.02938 8.22351 9.79263
H 13.5939 8.91779 7.87915
H -0.264547 7.51455 0.0196006
H 13.3375 8.88706 10.2657
C 3.14334 4.45025 3.2736
C 2.99279 4.41972 4.60064
H 2.61669 3.72987 2.67059
H 3.47072 5.15598 5.2323
H 2.33596 3.68686 5.05619
C 8.94652 9.59134 5.52088
C 7.80191 10.1187 5.94261
H 8.93385 8.91868 4.66818
H 7.7993 10.9113 6.68063
H 6.8656 9.77455 5.51891
C 9.25175 2.67748 3.26515
C 9.46086 2.62429 4.58217
H 9.75055 3.44004 2.6824
H 8.98311 1.87892 5.19073
H 10.1222 3.34071 5.05598
C 6.65737 8.11929 8.49165
C 6.53678 7.98024 9.81421
H 6.06685 8.86447 7.98063
H 7.26149 7.17183 -0.0461387
H 6.12995 8.65768 -0.00774711
C -0.237106 4.66596 0.639393
C 0.858083 5.24595 1.08864
H -0.38743 4.01421 10.1564
H 0.803089 6.04655 1.81929
H 1.81077 4.9343 0.686897
140
Atoms. Timestep: 7100
Ni 2.28667 8.97008 8.85488
Ni 6.1853 3.51595 3.60753
O 0.0653883 4.58005 3.78901
O 3.70159 7.93633 8.93267
O 4.79737 2.46505 3.68919
O 0.92282 9.99644 8.98923
O 5.70252 4.64016 4.88778
O 1.84158 7.81044 10.137
O -0.972658 2.43201 4.91683
O 2.79112 10.1251 10.1501
N 3.05557 10.1472 7.50889
N -0.578201 2.40364 2.33735
N 1.43908 7.81017 7.55679
N 5.38915 4.68639 2.29548
C 3.46111 10.8954 5.24525
C -0.360528 1.19334 0.265252
H 3.14952 10.9314 4.20992
H 6.43627 1.15911 9.5825
C 4.65766 11.516 5.63498
C 0.984708 11.4201 0.549956
C 4.98604 1.00328 6.97903
C 1.49718 1.27296 1.77646
H 12.9273 1.94645 7.39707
H 2.52113 1.03915 2.03636
C 1.36189 6.70719 5.42752
C 5.14245 5.60216 0.0798695
H 1.73979 6.7091 4.41508
H 12.81 5.80721 9.43233
C 2.09682 7.34114 6.45414
C 5.91433 4.91323 1.05018
H 3.13212 7.60628 6.28713
C 2.6073 10.3225 6.21231
C -1.14826 1.92668 1.17226
H 5.31747 2.26753 0.987058
C 4.22888 10.7654 7.88168
C 0.680686 1.95857 2.68437
H 4.63374 10.5951 8.86197
H 1.08504 2.20015 3.65431
C 0.115403 7.39556 7.76975
C 4.17361 5.27136 2.61436
C -0.449008 6.39683 6.95705
C 3.70954 6.35379 1.84629
H 5.9677 6.0821 7.02982
H 2.91587 6.98502 2.22533
C 0.112214 6.13272 5.7188
C 4.05666 6.40231 0.498765
C 5.42983 1.80445 4.64818
C 1.55115 10.656 9.93827
C -0.598404 5.26948 4.72008
C 3.07381 7.27279 9.90513
Ni 9.72668 8.89703 8.7951
Ni 13.7053 3.60209 3.62818
O 7.57498 4.56761 3.73038
O 11.167 7.90586 8.91498
O 12.2576 2.62494 3.71011
O 8.32621 9.90487 8.89071
O 13.2283 4.7722 4.89188
O 9.2839 7.74412 10.0797
O 6.65574 2.35321 4.88097
O 10.1631 10.0617 10.0846
N 10.4918 10.088 7.43208
N 6.98948 2.38315 2.30359
N 8.9351 7.69089 7.51484
N 12.9768 4.80536 2.28465
C 11.1583 10.6433 5.15943
C 7.04726 1.23391 0.203843
H 11.0332 10.5009 4.09351
H -1.01009 11.4262 9.68938
C 12.0961 1.06219 5.62742
C 8.29196 11.1866 0.538095
C 12.208 1.24159 6.99716
C 8.71002 11.287 1.84966
H 5.84735 1.55603 7.32907
H 9.53248 10.6865 2.21099
C 9.05626 6.16855 5.65623
C 12.7052 5.75723 0.0784478
H 9.61618 5.79116 4.81779
H 5.20499 5.57514 9.4199
C 9.69009 7.00086 6.60297
C 13.5195 5.13215 1.0545
H 10.7501 7.19738 6.51561
H 6.89667 4.54326 0.792827
C 10.2451 10.0349 6.06493
C 6.33868 1.96502 1.17538
C 11.5207 10.9047 7.86788
C 8.2355 1.84508 2.59925
H 11.8946 10.8212 8.87166
C 7.59693 7.30955 7.69967
C 11.74 5.31909 2.61083
H 11.2936 5.06428 3.55426
C 7.01148 6.34415 6.88608
C 10.9997 6.10583 1.71863
H -1.43068 6.00306 7.19427
H 10.0439 6.51216 2.0274
C 7.68131 5.88486 5.77956
C 11.4743 6.32545 0.436428
C 12.8669 1.93098 4.67281
C 8.90793 10.5541 9.87366
C 6.93218 5.18891 4.70519
C 10.5236 7.22984 9.86889
C 1.22207 10.0467 5.82636
C 0.215483 10.7019 6.37565
H 1.02651 9.40204 4.97568
H 0.387659 1.00806 7.0624
H -0.785402 10.3883 6.14476
C 12.6356 2.39967 0.696007
C 11.5234 1.84288 1.11521
H 12.367 2.99974 10.1744
H 11.5515 1.04537 1.84868
H 10.5865 2.17316 0.690281
C -0.856692 8.2656 8.46899
C -1.02938 8.22351 9.79263
H 13.5939 8.91779 7.87915
H -0.264547 7.51455 0.0196006
H 13.3375 8.88706 10.2657
C 3.14334 4.45025 3.2736
C 2.99279 4.41972 4.60064
H 2.61669 3.72987 2.67059
H 3.47072 5.15598 5.2323
H 2.33596 3.68686 5.05619
C 8.94652 9.59134 5.52088
C 7.80191 10.1187 5.94261
H 8.93385 8.91868 4.66818
H 7.7993 10.9113 6.68063
H 6.8656 9.77455 5.51891
C 9.25175 2.67748 3.26515
C 9.46086 2.62429 4.58217
H 9.75055 3.44004 2.6824
H 8.98311 1.87892 5.19073
H 10.1222 3.34071 5.05598
C 6.65737 8.11929 8.49165
C 6.53678 7.98024 9.81421
H 6.06685 8.86447 7.98063
H 7.26149 7.17183 -0.0461387
H 6.12995 8.65768 -0.00774711
C -0.237106 4.66596 0.639393
C 0.858083 5.24595 1.08864
H -0.38743 4.01421 10.1564
H 0.803089 6.04655 1.81929
H 1.81077 4.9343 0.686897
140
Atoms. Timestep: 7161
Ni 2.28667 8.97008 8.85488
Ni 6.1853 3.51595 3.60753
O 0.0653882 4.58005 3.78901
O 3.70159 7.93633 8.93267
O 4.79737 2.46505 3.68919
O 0.92282 9.99644 8.98923
O 5.70252 4.64016 4.88778
O 1.84158 7.81044 10.137
O -0.972658 2.43201 4.91683
O 2.79112 10.1251 10.1501
N 3.05557 10.1472 7.50889
N -0.578201 2.40364 2.33735
N 1.43908 7.81017 7.55679
N 5.38915 4.68639 2.29548
C 3.46111 10.8954 5.24525
C -0.360528 1.19334 0.265252
H 3.14952 10.9314 4.20992
H 6.43627 1.15911 9.5825
C 4.65766 11.516 5.63498
C 0.984708 11.4201 0.549955
C 4.98604 1.00328 6.97903
C 1.49718 1.27296 1.77646
H 12.9273 1.94645 7.39707
H 2.52113 1.03915 2.03636
C 1.36189 6.70719 5.42752
C 5.14245 5.60216 0.0798697
H 1.73979 6.70911 4.41508
H 12.81 5.80721 9.43233
C 2.09682 7.34114 6.45414
C 5.91433 4.91323 1.05018
H 3.13212 7.60628 6.28713
C 2.6073 10.3225 6.21231
C -1.14826 1.92668 1.17226
H 5.31747 2.26753 0.987058
C 4.22888 10.7654 7.88168
C 0.680686 1.95857 2.68437
H 4.63374 10.5951 8.86197
H 1.08504 2.20015 3.65431
C 0.115402 7.39556 7.76975
C 4.17361 5.27136 2.61436
C -0.449008 6.39683 6.95705
C 3.70954 6.35379 1.84629
H 5.9677 6.0821 7.02982
H 2.91587 6.98502 2.22533
C 0.112214 6.13272 5.7188
C 4.05666 6.40231 0.498765
C 5.42983 1.80445 4.64818
C 1.55115 10.656 9.93827
C -0.598404 5.26948 4.72008
C 3.07381 7.27279 9.90513
Ni 9.72668 8.89703 8.7951
Ni 13.7053 3.60209 3.62818
O 7.57498 4.56761 3.73038
O 11.167 7.90586 8.91498
O 12.2576 2.62494 3.71011
O 8.32621 9.90487 8.89071
O 13.2283 4.7722 4.89188
O 9.2839 7.74412 10.0797
O 6.65574 2.35321 4.88097
O 10.1631 10.0617 10.0846
N 10.4918 10.088 7.43208
N 6.98948 2.38315 2.30359
N 8.9351 7.69089 7.51484
N 12.9768 4.80536 2.28465
C 11.1583 10.6433 5.15943
C 7.04726 1.23391 0.203843
H 11.0332 10.5009 4.09351
H -1.01009 11.4262 9.68938
C 12.0961 1.06219 5.62742
C 8.29196 11.1866 0.538095
C 12.208 1.24159 6.99715
C 8.71002 11.287 1.84966
H 5.84735 1.55603 7.32907
H 9.53248 10.6865 2.21099
C 9.05626 6.16854 5.65623
C 12.7052 5.75723 0.0784478
H 9.61618 5.79116 4.81779
H 5.20499 5.57514 9.4199
C 9.69009 7.00086 6.60297
C 13.5195 5.13215 1.0545
H 10.7501 7.19738 6.51561
H 6.89667 4.54326 0.792827
C 10.2451 10.0349 6.06493
C 6.33868 1.96502 1.17538
C 11.5207 10.9047 7.86788
C 8.2355 1.84508 2.59924
H 11.8946 10.8212 8.87166
C 7.59693 7.30955 7.69967
C 11.74 5.31909 2.61083
H 11.2936 5.06428 3.55426
C 7.01148 6.34415 6.88608
C 10.9997 6.10583 1.71863
H -1.43068 6.00306 7.19427
H 10.0439 6.51216 2.0274
C 7.68131 5.88486 5.77956
C 11.4743 6.32545 0.436428
C 12.8669 1.93098 4.67281
C 8.90793 10.5541 9.87366
C 6.93218 5.18891 4.70519
C 10.5236 7.22984 9.86889
C 1.22207 10.0467 5.82636
C 0.215483 10.7019 6.37565
H 1.02651 9.40204 4.97568
H 0.38766 1.00806 7.0624
H -0.785402 10.3883 6.14476
C 12.6356 2.39967 0.696007
C 11.5234 1.84288 1.11521
H 12.367 2.99974 10.1744
H 11.5515 1.04537 1.84868
H 10.5865 2.17316 0.690281
C -0.856692 8.2656 8.46899
C -1.02938 8.22351 9.79263
H 13.5939 8.91779 7.87915
H -0.264547 7.51455 0.0196008
H 13.3375 8.88706 10.2657
C 3.14334 4.45025 3.2736
C 2.99279 4.41972 4.60064
H 2.61669 3.72987 2.67059
H 3.47072 5.15598 5.2323
H 2.33596 3.68686 5.05619
C 8.94652 9.59134 5.52088
C 7.80191 10.1187 5.94261
H 8.93385 8.91868 4.66818
H 7.7993 10.9113 6.68063
H 6.8656 9.77455 5.51891
C 9.25175 2.67748 3.26515
C 9.46086 2.62429 4.58217
H 9.75055 3.44003 2.6824
H 8.98311 1.87892 5.19073
H 10.1222 3.34071 5.05598
C 6.65737 8.11929 8.49165
C 6.53678 7.98024 9.81421
H 6.06685 8.86447 7.98063
H 7.26149 7.17183 -0.0461386
H 6.12995 8.65768 -0.00774733
C -0.237106 4.66596 0.639393
C 0.858083 5.24595 1.08864
H -0.38743 4.01421 10.1564
H 0.803089 6.04655 1.81929
H 1.81077 4.9343 0.686897
