148
Atoms. Timestep: 0
Ni 2.89857 9.41116 8.59265
Ni 6.17525 3.10579 3.48481
O 1.44827 4.35425 3.93374
O 4.4416 8.15245 9.05464
O 4.63665 1.84729 3.87523
O 1.36499 10.6744 9.00295
O 5.80609 4.46033 4.96242
O 2.54244 8.0327 10.0675
O 0.25117 1.69264 4.94273
O 3.23722 10.8047 10.0626
N 3.69677 10.6606 7.2416
N 0.71256 1.8642 2.11704
N 2.17217 8.14409 7.25198
N 5.44023 4.39481 2.13747
C 3.48546 12.1483 5.36301
C 0.47488 0.38955 0.2292
H 2.86453 12.5181 4.55267
H 5.86971 0.03371 9.69377
C 4.76073 0.1474 5.61481
C 1.74333 12.3699 0.47412
C 5.50345 12.1502 6.68209
C 2.49852 0.35508 1.54004
H 0.24768 12.5084 6.91993
H 3.49155 12.5067 1.77336
C 2.48363 6.6337 5.40822
C 5.72803 5.90364 0.28669
H 3.13294 6.27291 4.61605
H -0.10828 6.26667 9.7662
C 2.92756 7.68099 6.23068
C 6.1883 4.86756 1.11596
H 0.91589 4.41889 0.97634
C 2.98256 11.1359 6.19748
C -0.01036 1.40553 1.07106
H 5.26093 1.85011 0.92351
C 4.93641 11.1381 7.47507
C 1.94823 1.3719 2.3406
H 5.48559 10.7097 8.30944
H 2.50886 1.79214 3.17267
C 0.94573 7.62654 7.47302
C 4.21083 4.90458 2.35686
H 0.36328 8.05184 8.28732
C 0.43859 6.57577 6.69176
C 3.68763 5.945 1.56944
H 5.70774 6.17693 6.91975
H 2.69824 6.32683 1.80071
C 1.22745 6.06471 5.65205
C 4.46338 6.45777 0.52027
C 5.3126 1.24381 4.79419
C 2.0502 11.2675 9.92158
C 0.73548 4.94016 4.83586
C 3.73174 7.56629 9.95688
Ni 9.15137 9.41116 8.59265
Ni 12.4281 3.10579 3.48481
O 7.70109 4.35425 3.93374
O 10.6944 8.15245 9.05464
O 10.8895 1.84729 3.87523
O 7.61779 10.6744 9.00295
O 12.0589 4.46033 4.96242
O 8.79524 8.0327 10.0675
O 6.50397 1.69264 4.94273
O 9.49002 10.8047 10.0626
N 9.94957 10.6606 7.2416
N 6.96536 1.8642 2.11704
N 8.42499 8.14409 7.25198
N 11.693 4.39481 2.13747
C 9.73826 12.1483 5.36301
C 6.72768 0.38955 0.2292
H 9.11733 12.5181 4.55267
H 12.1225 0.03371 9.69377
C 11.0135 0.1474 5.61481
C 7.99613 12.3699 0.47412
C 11.7562 12.1502 6.68209
C 8.75132 0.35508 1.54004
H 6.50047 12.5084 6.91993
H 9.74435 12.5067 1.77336
C 8.73644 6.6337 5.40822
C 11.9808 5.90364 0.28669
H 9.38574 6.27291 4.61605
H 6.14452 6.26667 9.7662
C 9.18036 7.68099 6.23068
C 12.4411 4.86756 1.11596
H 7.16869 4.41889 0.97634
C 9.23536 11.1359 6.19748
C 6.24244 1.40553 1.07106
H 8.24672 10.709 6.04703
C 11.1892 11.1381 7.47507
C 8.20102 1.3719 2.3406
C 7.19853 7.62654 7.47302
C 10.4636 4.90458 2.35686
H 6.61608 8.05184 8.28732
C 6.69139 6.57577 6.69176
C 9.94043 5.945 1.56944
H 11.9605 6.17693 6.91975
H 8.95104 6.32683 1.80071
C 7.48025 6.06471 5.65205
C 10.7162 6.45777 0.52027
C 11.5654 1.24381 4.79419
C 8.303 11.2675 9.92158
C 6.98827 4.94016 4.83586
C 9.98454 7.56629 9.95688
C 1.56647 10.5445 5.90771
N 1.16738 9.51728 6.86861
H 0.80964 11.3592 5.93786
H 1.57514 10.0848 4.89584
H 1.01465 9.96645 7.80138
H 0.24819 9.12044 6.56676
C 11.0879 2.02063 0.78685
N 10.7065 3.04857 1.75417
H 10.3184 1.21776 0.81367
H 10.8746 2.48587 10.0518
H 10.5482 2.59659 2.68466
H 9.79316 3.46147 1.45609
C 4.32209 8.32702 5.95721
N 4.65818 9.38795 6.90552
H 5.112 7.54612 6.01745
H 4.31399 8.76717 4.93667
H 4.81129 8.96303 7.84952
H 5.56554 9.81807 6.61359
C 3.33864 4.32122 3.51695
N 4.01562 3.26242 4.26425
H 3.07515 5.13358 4.22972
H 2.40905 3.8951 3.08151
H 4.81306 3.68043 4.79762
H 3.34713 2.87466 4.96872
C 12.0236 10.5476 8.65948
N 11.303 9.52054 9.41028
H 12.2981 11.3629 9.36462
H 0.44219 10.0881 8.24725
H 10.5088 9.96967 9.92293
H 11.9474 9.12457 10.1324
C 9.05045 1.94873 3.52073
N 8.34695 2.98165 4.27968
H 9.3205 1.12807 4.22142
H 9.97703 2.39891 3.10347
H 7.55128 2.54007 4.79645
H 9.00089 3.36792 4.99847
C 10.5749 8.32702 5.9572
N 10.911 9.38797 6.90551
H 11.3648 7.54614 6.01744
H 10.5668 8.76718 4.93666
H 11.0641 8.96305 7.84951
H 11.8183 9.8181 6.61357
C 9.59454 4.32656 3.52193
N 10.2539 3.23745 4.2409
H 8.63422 3.94055 3.1143
H 9.38714 5.14241 4.24766
H 10.3257 2.4075 3.60752
H 9.64735 2.95622 5.04497
148
Atoms. Timestep: 187
Ni 3.26609 9.69249 8.79943
Ni 5.93695 3.1839 3.3731
O 1.4367 3.94567 4.39003
O 4.80044 8.7154 8.89078
O 4.45339 2.16037 3.61049
O 1.81798 10.6664 9.05208
O 5.48541 4.45118 4.54561
O 2.99757 8.64897 10.1826
O 0.281846 1.73443 5.23193
O 3.78629 11.0288 9.95237
N 3.77191 10.8626 7.26719
N 0.765412 1.8331 2.53933
N 2.45635 8.2363 7.60202
N 5.34149 4.34774 1.81753
C 3.23749 0.304587 5.93074
C 1.0938 0.993142 0.247239
H 2.50918 1.09504 5.93363
H 6.23749 0.530308 9.17565
C 4.58002 0.599766 5.71918
C 2.08329 0.0345843 0.62439
C 5.45426 -0.0200439 6.61236
C 2.45848 0.0984677 1.97939
H 11.3487 1.07403 7.78417
H 3.23341 11.9646 2.35065
C 1.89688 7.0884 5.51498
C 5.72737 5.96583 10.3128
H 1.75957 7.24826 4.45174
H 11.8664 5.41458 9.6097
C 2.78742 7.95341 6.26954
C 6.24532 4.78822 0.855012
H 0.807177 4.02055 1.05017
C 2.88333 11.5269 6.40286
C 0.239433 1.60059 1.25997
H 5.4147 2.23176 0.414278
C 5.01751 11.4189 7.40501
C 1.87698 1.08274 2.86849
H 5.60907 11.1273 8.2304
H 2.30423 1.21933 3.82019
C 1.61696 7.29203 8.2033
C 4.17297 5.07044 1.87923
H 1.23052 7.46899 9.1959
C 1.26725 6.04452 7.54334
C 4.09378 6.38792 1.40118
H 7.01361 4.71268 7.16436
H 3.32713 7.05404 1.79243
C 1.35593 5.93126 6.14307
C 4.88018 6.8144 0.385482
C 5.09973 1.65229 4.69993
C 2.51 11.4943 9.88222
C 0.796475 4.64681 5.3492
C 4.21347 8.11221 9.95539
Ni 9.02361 9.17295 8.87714
Ni -0.0130243 3.0445 4.01361
O 7.3545 4.20798 3.51212
O 10.6155 8.34157 9.15428
O 10.9705 2.08504 4.03303
O 7.4116 10.017 8.9391
O 12.0512 4.17745 5.39986
O 8.67941 7.90281 10.1445
O 6.31566 2.18244 4.77511
O 9.18037 10.3851 10.1992
N 9.71351 10.5868 7.59535
N 6.67189 1.76259 2.08608
N 8.54128 7.79719 7.388
N 11.9484 4.49312 2.64262
C 10.1689 11.5488 5.39069
C 6.43886 0.49188 10.2252
H 10.1808 11.3355 4.33149
H 0.705243 1.22817 9.47922
C 10.7965 0.195289 5.89747
C 7.41426 11.9291 0.499013
C 10.8539 0.23686 7.30871
C 7.70735 12.0521 1.85196
H 6.37934 0.458059 6.8698
H 8.26194 11.2547 2.33806
C 7.82485 7.27105 5.1045
C 11.8812 5.53631 0.380929
H 7.77975 7.59371 4.07218
H 6.24026 6.12512 9.40069
C 8.73375 7.94142 6.01352
C 12.4718 4.6171 1.35498
H 7.17011 4.25067 0.699845
C 9.34087 10.7515 6.28205
C 6.17407 1.57172 0.802839
H 8.38922 10.3787 5.93599
C 10.6123 11.5351 8.07577
C 7.53309 0.777286 2.53925
C 8.04768 6.54916 7.75807
C 10.9827 5.42348 2.97778
H 8.27742 6.14321 8.72591
C 7.38611 5.67075 6.82232
C 10.8116 6.62854 2.17993
H 0.895445 5.21242 8.11725
H 10.224 7.4489 2.57054
C 7.30466 5.99832 5.45462
C 10.9981 6.56639 0.800472
C 11.5461 1.27312 4.98155
C 7.93303 10.8102 9.92466
C 6.67745 4.99681 4.39659
C 10.0081 7.55353 10.0741
C 2.05272 10.752 5.41369
N 0.894245 10.1533 6.02742
H 1.6827 11.4177 4.60191
H 2.67143 10.0147 4.87589
H 0.282241 10.9315 6.34211
H 0.385754 9.6238 5.28241
C 11.2545 1.40722 1.071
N 10.5206 2.65067 0.928129
H 10.8741 0.807925 1.90925
H 11.0446 0.808856 0.159953
H 9.50427 2.45665 1.07658
H 10.6481 3.00933 -0.0465996
C 4.22888 7.93401 5.77252
N 5.15883 8.88375 6.33909
H 4.62497 6.90968 5.94275
H 4.19216 8.13223 4.6765
H 5.95764 8.37631 6.77834
H 5.5488 9.49541 5.58359
C 3.14279 4.71045 2.76896
N 3.3327 5.43479 4.01203
H 2.19735 5.07629 2.35337
H 3.04641 3.63105 2.83628
H 4.05904 6.17325 3.96561
H 3.39774 4.84474 4.87229
C 11.7783 11.0454 8.86487
N 11.5747 10.663 10.2609
H -0.000433009 11.8534 8.81578
H 12.1837 10.1709 8.33318
H 12.4358 9.86796 0.233643
H 12.0062 11.4338 0.649327
C 8.41145 1.02762 3.67232
N 7.96028 12.8139 4.83226
H 9.37912 0.625574 3.38317
H 8.51673 2.10037 3.87992
H 7.10869 12.2226 4.7012
H 8.08667 0.83537 5.71438
C 10.136 8.07206 5.48947
N 11.0949 7.92049 6.55846
H 10.321 7.27311 4.76582
H 10.3114 8.97549 4.88323
H 11.8918 7.38492 6.18825
H 11.4306 8.85443 6.84214
C 9.74347 4.90347 3.5305
N 9.78016 4.51785 4.93244
H 9.50824 4.01798 2.9072
H 8.98462 5.68978 3.38537
H 9.05599 3.81774 5.20007
H 9.82225 5.32252 5.58871
148
Atoms. Timestep: 474
Ni 3.29604 9.56894 8.70921
Ni 5.90851 3.3363 3.59661
O 1.66957 3.83594 4.26305
O 4.83066 8.64703 8.80838
O 4.35283 2.36427 3.69296
O 1.82675 10.5035 8.96841
O 5.37126 4.68467 4.70857
O 3.02255 8.45659 10.082
O 0.413831 1.62643 5.17552
O 3.78242 10.8889 9.88752
N 3.76473 10.7645 7.18917
N 0.822607 1.71502 2.48175
N 2.56207 8.1591 7.45925
N 5.56213 4.508 1.98559
C 3.13518 0.222941 5.89658
C 1.07552 0.848637 0.198473
H 2.40458 0.991873 5.94753
H 6.2188 0.560496 9.45465
C 4.45646 0.579905 5.67811
C 2.07401 12.4052 0.557892
C 5.35184 -0.0165651 6.57531
C 2.49326 12.4888 1.89564
H 11.4991 1.0672 7.80526
H 3.30172 11.8561 2.24251
C 2.68984 6.56353 5.55558
C 6.18542 6.62906 0.940465
H 3.21588 6.23677 4.68449
H 11.8199 5.46818 9.62438
C 3.20663 7.70211 6.2915
C 6.5382 5.42246 1.61137
H 0.70254 3.89768 0.90813
C 2.82068 11.438 6.38904
C 0.251446 1.47537 1.2304
H 5.56483 2.40284 0.628139
C 5.02978 11.2916 7.22608
C 1.93407 0.952046 2.79062
H 5.73278 10.8857 7.90857
H 2.3743 1.07254 3.73778
C 1.48927 7.40964 7.91123
C 4.31823 4.70772 1.41348
H 0.954915 7.73163 8.79586
C 1.09998 6.17299 7.2865
C 4.21047 5.52548 0.24281
H 6.1698 5.41478 7.42683
H 3.10259 5.45042 9.88907
C 1.63256 5.77413 6.04674
C 5.01448 6.67095 0.173408
C 4.90507 1.83155 4.85026
C 2.50531 11.3398 9.81141
C 1.05596 4.5162 5.2624
C 4.26379 7.98689 9.85385
Ni 9.02397 9.29633 9.07552
Ni 0.128883 2.94742 3.95969
O 7.36212 4.25557 3.90779
O 10.6023 8.3921 9.27109
O 11.0809 2.02159 4.04245
O 7.43911 10.1826 9.21739
O 12.2931 4.07831 5.34164
O 8.93456 8.01345 0.0698419
O 6.10988 2.33639 5.01762
O 9.49599 10.498 0.130487
N 9.68267 10.6909 7.75553
N 6.69543 1.87381 2.36932
N 8.43049 7.99459 7.63269
N 12.0279 4.4087 2.62774
C 10.1327 11.5559 5.49259
C 6.73613 0.600625 0.220478
H 10.1099 11.3064 4.44043
H 0.710714 1.13135 9.44054
C 10.8697 0.167574 5.95312
C 7.53595 12.083 0.765801
C 10.9555 0.243388 7.3625
C 7.82733 12.2042 2.11846
H 6.161 0.570986 6.9774
H 8.41961 11.4259 2.58886
C 8.15495 7.17556 5.33497
C 11.8491 5.52811 0.401755
H 8.31136 7.39888 4.28953
H 6.80377 7.50628 1.03587
C 8.92979 7.87248 6.33636
C 12.4566 4.54767 1.3072
H 7.57556 5.24517 1.83592
C 9.31385 10.7928 6.43228
C 6.26508 1.70627 1.05458
H 8.43441 10.2822 6.07854
C 10.6539 11.5808 8.17361
C 7.53898 0.888725 2.85276
C 7.4075 7.1267 7.97309
C 11.0499 5.30683 3.02788
H 6.96733 7.19857 8.93812
C 6.91468 6.11903 7.0767
C 10.8268 6.54145 2.28284
H 0.346305 5.56037 7.74892
H 10.2427 7.33297 2.7375
C 7.27203 6.13229 5.71957
C 11.0006 6.55791 0.890672
C 11.6506 1.19818 4.97912
C 8.01057 10.9451 10.1874
C 6.65258 5.10383 4.69314
C 10.0092 7.60932 10.2112
C 1.8196 10.6805 5.53322
N 0.829951 9.96056 6.30093
H 1.2871 11.3953 4.86173
H 2.31186 10.0041 4.82409
H -0.069764 10.4742 6.22723
H 0.673886 9.02947 5.85694
C 11.2458 1.31701 1.09567
N 10.5335 2.57888 1.01253
H 10.8584 0.707523 1.93808
H 10.9946 0.74923 0.175545
H 9.52536 2.41489 1.23297
H 10.3729 2.95072 10.3111
C 4.55178 8.24131 5.8372
N 4.45411 9.10415 4.66762
H 5.15047 8.73054 6.60457
H 5.14494 7.37473 5.53176
H 5.37799 9.56662 4.50077
H 4.18769 8.54455 3.8255
C 3.14874 4.69057 2.28659
N 2.39576 5.95659 2.27109
H 2.52973 3.82697 2.00467
H 3.53419 4.5614 3.29581
H 1.95034 6.13482 1.34516
H 3.01187 6.76738 2.50889
C 11.812 11.0033 8.89803
N 11.6667 10.628 10.3033
H 0.0824348 11.7443 8.78377
H 12.0902 10.0872 8.35817
H 0.0872962 9.88965 0.27699
H 12.0101 11.4093 0.693491
C 8.3176 1.12135 4.04977
N 7.71338 0.43495 5.16
H 9.29703 0.711917 3.83733
H 8.40174 2.18134 4.25273
H 7.53298 11.9496 4.95593
H 8.20658 0.659867 6.05272
C 10.3673 8.19111 6.01207
N 11.0535 6.99417 5.58572
H 10.3957 8.89329 5.15533
H 10.9038 8.62281 6.87463
H 11.9232 7.23378 5.06027
H 11.2374 6.40574 6.42243
C 9.84571 4.75294 3.67602
N 9.96692 4.40939 5.0918
H 9.5281 3.87029 3.08679
H 9.09079 5.53254 3.56809
H 9.57812 3.4788 5.32872
H 9.54544 5.09219 5.74041
148
Atoms. Timestep: 503
Ni 3.30207 9.58137 8.71418
Ni 5.89613 3.33581 3.57596
O 1.67337 3.84627 4.25977
O 4.84373 8.66717 8.81055
O 4.34014 2.36317 3.68047
O 1.82692 10.5069 8.97808
O 5.3615 4.6921 4.68039
O 3.03954 8.46794 10.0859
O 0.421218 1.64041 5.18648
O 3.78258 10.9043 9.89245
N 3.76217 10.7819 7.19521
N 0.818581 1.72273 2.49014
N 2.57391 8.16654 7.46217
N 5.55006 4.49495 1.95638
C 3.12452 0.248054 5.923
C 1.0621 0.848327 0.209439
H 2.40724 1.02939 6.02235
H 6.22416 0.556522 9.4424
C 4.44573 0.590819 5.67552
C 2.06744 12.4111 0.567302
C 5.352 12.5111 6.55863
C 2.48966 12.4982 1.90462
H 11.4764 1.07501 7.82823
H 3.29231 11.861 2.25458
C 2.70565 6.57211 5.55545
C 6.20237 6.60357 0.913881
H 3.23638 6.24221 4.68716
H 11.7881 5.44654 9.6186
C 3.21606 7.71557 6.29043
C 6.54123 5.38131 1.56183
H 0.67405 3.88858 0.902082
C 2.81275 11.4587 6.40583
C 0.242198 1.47697 1.24323
H 5.51387 2.36589 0.627366
C 5.03017 11.2996 7.21432
C 1.92865 0.959611 2.80002
H 5.74242 10.8837 7.88089
H 2.35663 1.06572 3.75598
C 1.51305 7.40363 7.92057
C 4.30512 4.71261 1.39252
H 0.995045 7.70572 8.81989
C 1.13589 6.16252 7.29822
C 4.19565 5.54777 0.233001
H 6.20827 5.36937 7.41297
H 3.07219 5.50681 9.89834
C 1.65599 5.77572 6.05135
C 5.02402 6.67465 0.157795
C 4.89181 1.83992 4.84232
C 2.50219 11.3473 9.82014
C 1.0664 4.52935 5.25884
C 4.28415 8.00639 9.86111
Ni 9.01538 9.28906 9.06529
Ni 0.131275 2.95952 3.96647
O 7.35028 4.25721 3.87944
O 10.5934 8.38334 9.25988
O 11.0838 2.03566 4.05908
O 7.43093 10.176 9.21002
O 12.3026 4.09521 5.34583
O 8.92339 8.00433 0.0541472
O 6.09765 2.34449 5.00324
O 9.48682 10.4869 0.125522
N 9.67844 10.6905 7.74893
N 6.67938 1.86959 2.35745
N 8.42223 7.98902 7.61754
N 12.0234 4.41692 2.63214
C 10.144 11.5671 5.49052
C 6.72949 0.593717 0.210939
H 10.129 11.3267 4.43623
H 0.68638 1.12311 9.45093
C 10.8756 0.176629 5.96249
C 7.52938 12.0783 0.761218
C 10.9468 0.248355 7.37378
C 7.81656 12.204 2.11602
H 6.1631 0.57345 6.9576
H 8.40068 11.4261 2.594
C 8.15366 7.17583 5.31696
C 11.8313 5.52094 0.399287
H 8.30996 7.40377 4.27261
H 6.82086 7.47623 1.0433
C 8.92642 7.8702 6.32408
C 12.4431 4.54802 1.30752
H 7.57677 5.17906 1.77681
C 9.3225 10.7932 6.42003
C 6.24274 1.69164 1.04595
H 8.44509 10.2857 6.05726
C 10.6478 11.5791 8.17493
C 7.53212 0.893944 2.84281
C 7.41029 7.10731 7.95701
C 11.0456 5.31409 3.03309
H 6.97368 7.16774 8.92313
C 6.92802 6.0968 7.05794
C 10.8124 6.54302 2.27856
H 0.407299 5.53082 7.7744
H 10.2357 7.34047 2.73191
C 7.26912 6.12922 5.69594
C 10.9864 6.55331 0.884709
C 11.6547 1.21594 4.99669
C 8.00055 10.9331 10.1859
C 6.64372 5.11052 4.66242
C 9.99689 7.5994 10.1981
C 1.83187 10.6978 5.53555
N 0.83971 9.97525 6.29491
H 1.30632 11.4043 4.85075
H 2.34566 10.0192 4.84512
H -0.0504912 10.5069 6.24164
H 0.666361 9.05775 5.83129
C 11.2365 1.31599 1.1178
N 10.5228 2.57474 0.994287
H 10.8526 0.733354 1.97947
H 10.9824 0.720702 0.216914
H 9.51059 2.40955 1.19489
H 10.6098 2.92549 0.0123085
C 4.55982 8.25706 5.83811
N 4.4674 9.0801 4.63872
H 5.14654 8.77387 6.59597
H 5.16127 7.3867 5.57076
H 5.38918 9.5431 4.46439
H 4.2119 8.49203 3.81246
C 3.13622 4.67803 2.2645
N 2.39844 5.95151 2.28327
H 2.50786 3.82571 1.96689
H 3.52645 4.52613 3.26848
H 1.93603 6.14766 1.36987
H 3.03863 6.7468 2.51245
C 11.8076 10.9978 8.89625
N 11.8866 10.6149 0.025483
H 0.0789002 11.7411 8.78516
H 12.0919 10.0849 8.35218
H 0.0724737 9.86983 0.271048
H 12.0029 11.3934 0.694624
C 8.31799 1.13863 4.03735
N 7.72094 0.457336 5.15588
H 9.29805 0.728637 3.82541
H 8.40629 2.20018 4.23706
H 7.53799 11.9713 4.95829
H 8.20945 0.686568 6.05085
C 10.3691 8.18149 6.01399
N 11.0827 6.97014 5.68521
H 10.4114 8.84239 5.12296
H 10.8804 8.66586 6.85998
H 11.9974 7.20833 5.24304
H 11.1977 6.40629 6.55439
C 9.84647 4.75534 3.68826
N 9.97244 4.42062 5.10616
H 9.54575 3.86165 3.10797
H 9.08491 5.52592 3.56874
H 9.6116 3.47707 5.3432
H 9.52374 5.08707 5.75164
148
Atoms. Timestep: 506
Ni 3.30194 9.58122 8.71427
Ni 5.89609 3.3357 3.57606
O 1.67331 3.84605 4.25957
O 4.84386 8.66684 8.81054
O 4.33978 2.36328 3.68065
O 1.82688 10.5072 8.97807
O 5.36137 4.69179 4.68026
O 3.03953 8.46822 10.086
O 0.421255 1.64053 5.18705
O 3.78278 10.9039 9.89237
N 3.76197 10.7817 7.19542
N 0.818515 1.72297 2.49062
N 2.5739 8.16653 7.46217
N 5.54991 4.49454 1.95646
C 3.1246 0.248188 5.9228
C 1.06208 0.848808 0.209158
H 2.40714 1.02924 6.02222
H 6.22352 0.556484 9.44209
C 4.44565 0.591119 5.67547
C 2.06768 12.411 0.567258
C 5.35207 12.5112 6.55856
C 2.48972 12.4984 1.90439
H 11.4765 1.07499 7.82805
H 3.29215 11.8611 2.25465
C 2.7055 6.57224 5.55548
C 6.2024 6.6035 0.913743
H 3.23651 6.24227 4.68676
H 11.7883 5.44601 9.61851
C 3.21597 7.71564 6.29086
C 6.54114 5.38129 1.56214
H 0.674788 3.88829 0.902458
C 2.813 11.4587 6.40603
C 0.241894 1.47719 1.24318
H 5.51412 2.366 0.627637
C 5.0302 11.2994 7.21451
C 1.92895 0.959753 2.80016
H 5.7423 10.8837 7.88103
H 2.35687 1.066 3.75566
C 1.5134 7.40345 7.9206
C 4.30492 4.71241 1.39265
H 0.994829 7.7062 8.81993
C 1.13598 6.16239 7.29831
C 4.19537 5.54791 0.23233
H 6.20839 5.3696 7.41305
H 3.07187 5.50657 9.89873
C 1.65592 5.77558 6.05107
C 5.02394 6.67483 0.157968
C 4.89191 1.84022 4.84207
C 2.50235 11.3473 9.82017
C 1.06645 4.52957 5.25899
C 4.28411 8.00656 9.86095
Ni 9.01528 9.28895 9.06503
Ni 0.131217 2.95936 3.96665
O 7.35037 4.25746 3.87937
O 10.5935 8.38302 9.25965
O 11.0844 2.03587 4.05854
O 7.43074 10.1762 9.20992
O 12.3024 4.09515 5.34626
O 8.92378 8.00408 0.0544112
O 6.09817 2.34416 5.00371
O 9.4866 10.4866 0.125735
N 9.67832 10.6902 7.74881
N 6.67951 1.86968 2.35722
N 8.42246 7.98933 7.61752
N 12.0237 4.41691 2.63212
C 10.1436 11.5673 5.49048
C 6.72949 0.593643 0.211168
H 10.1293 11.3265 4.43646
H 0.68628 1.12315 9.4508
C 10.8754 0.177075 5.96251
C 7.52945 12.0782 0.761117
C 10.9468 0.248233 7.37381
C 7.81668 12.2042 2.11586
H 6.16308 0.573278 6.95782
H 8.40091 11.4258 2.59405
C 8.15355 7.17618 5.3171
C 11.8316 5.52077 0.399051
H 8.3099 7.40405 4.27258
H 6.8206 7.47588 1.04319
C 8.92671 7.86989 6.32409
C 12.4433 4.54782 1.30731
H 7.57703 5.17927 1.77671
C 9.32188 10.7934 6.42031
C 6.24265 1.69149 1.04588
H 8.44481 10.2856 6.05726
C 10.6478 11.579 8.17524
C 7.53227 0.894061 2.84258
C 7.41042 7.10717 7.95701
C 11.0455 5.31408 3.03283
H 6.97383 7.16797 8.92325
C 6.92767 6.09675 7.05774
C 10.8125 6.54316 2.27882
H 0.407385 5.53078 7.7748
H 10.2361 7.34015 2.73222
C 7.26935 6.12881 5.69588
C 10.9862 6.55312 0.884525
C 11.6552 1.21606 4.99648
C 8.00054 10.9332 10.1858
C 6.64364 5.1102 4.6623
C 9.99715 7.5994 10.1984
C 1.83243 10.6978 5.5361
N 0.839731 9.97528 6.29484
H 1.3061 11.4044 4.85063
H 2.34571 10.0194 4.84493
H -0.050447 10.5069 6.24156
H 0.666329 9.05765 5.83126
C 11.2365 1.31599 1.1177
N 10.5229 2.57469 0.994372
H 10.8528 0.733863 1.97956
H 10.9825 0.720666 0.216945
H 9.5104 2.40948 1.19493
H 10.6098 2.9254 0.0122192
C 4.55977 8.2572 5.83833
N 4.46723 9.07986 4.63874
H 5.14646 8.77404 6.59593
H 5.16121 7.38666 5.57082
H 5.38916 9.54289 4.46429
H 4.21217 8.49188 3.81245
C 3.1366 4.67866 2.26489
N 2.39866 5.95157 2.28329
H 2.50789 3.82575 1.96692
H 3.52623 4.52653 3.26802
H 1.93594 6.14792 1.36966
H 3.03791 6.74667 2.51226
C 11.8078 10.9979 8.89635
N 11.8865 10.6152 0.0252702
H 0.0781791 11.7407 8.78523
H 12.0916 10.0849 8.35195
H 0.0725079 9.86946 0.271117
H 12.0028 11.3932 0.694503
C 8.31769 1.13855 4.0371
N 7.72111 0.45684 5.15593
H 9.29792 0.728904 3.82565
H 8.40637 2.20017 4.23663
H 7.53788 11.972 4.95843
H 8.20941 0.686774 6.05007
C 10.3684 8.18093 6.01361
N 11.0826 6.96985 5.68554
H 10.4119 8.84191 5.1228
H 10.8808 8.66625 6.86038
H 11.997 7.20768 5.24308
H 11.1977 6.40651 6.55445
C 9.84653 4.75541 3.68847
N 9.97222 4.42046 5.10626
H 9.54569 3.86198 3.10741
H 9.08458 5.52597 3.56909
H 9.61134 3.47734 5.34319
H 9.52379 5.08757 5.75173
148
Atoms. Timestep: 507
Ni 3.30194 9.58122 8.71427
Ni 5.89609 3.3357 3.57606
O 1.67331 3.84605 4.25957
O 4.84386 8.66684 8.81054
O 4.33978 2.36328 3.68065
O 1.82688 10.5072 8.97807
O 5.36137 4.69179 4.68026
O 3.03953 8.46822 10.086
O 0.421255 1.64053 5.18705
O 3.78278 10.9039 9.89237
N 3.76197 10.7817 7.19542
N 0.818515 1.72297 2.49062
N 2.5739 8.16653 7.46217
N 5.54991 4.49454 1.95646
C 3.1246 0.248188 5.9228
C 1.06208 0.848808 0.209158
H 2.40714 1.02924 6.02222
H 6.22352 0.556484 9.44209
C 4.44565 0.591119 5.67547
C 2.06768 12.411 0.567258
C 5.35207 12.5112 6.55856
C 2.48972 12.4984 1.90439
H 11.4765 1.07499 7.82805
H 3.29215 11.8611 2.25465
C 2.7055 6.57224 5.55548
C 6.2024 6.6035 0.913743
H 3.23651 6.24227 4.68676
H 11.7883 5.44601 9.61851
C 3.21597 7.71564 6.29086
C 6.54114 5.38129 1.56214
H 0.674788 3.88829 0.902458
C 2.813 11.4587 6.40603
C 0.241894 1.47719 1.24318
H 5.51412 2.366 0.627637
C 5.0302 11.2994 7.21451
C 1.92895 0.959753 2.80016
H 5.7423 10.8837 7.88103
H 2.35687 1.066 3.75566
C 1.5134 7.40345 7.9206
C 4.30492 4.71241 1.39265
H 0.994829 7.7062 8.81993
C 1.13598 6.16239 7.29831
C 4.19537 5.54791 0.23233
H 6.20839 5.3696 7.41305
H 3.07187 5.50657 9.89873
C 1.65592 5.77558 6.05107
C 5.02394 6.67483 0.157968
C 4.89191 1.84022 4.84207
C 2.50235 11.3473 9.82017
C 1.06645 4.52957 5.25899
C 4.28411 8.00656 9.86095
Ni 9.01528 9.28895 9.06503
Ni 0.131217 2.95936 3.96665
O 7.35037 4.25746 3.87937
O 10.5935 8.38302 9.25965
O 11.0844 2.03587 4.05854
O 7.43074 10.1762 9.20992
O 12.3024 4.09515 5.34626
O 8.92378 8.00408 0.0544112
O 6.09817 2.34416 5.00371
O 9.4866 10.4866 0.125735
N 9.67832 10.6902 7.74881
N 6.67951 1.86968 2.35722
N 8.42246 7.98933 7.61752
N 12.0237 4.41691 2.63212
C 10.1436 11.5673 5.49048
C 6.72949 0.593643 0.211168
H 10.1293 11.3265 4.43646
H 0.68628 1.12315 9.4508
C 10.8754 0.177075 5.96251
C 7.52945 12.0782 0.761117
C 10.9468 0.248233 7.37381
C 7.81668 12.2042 2.11586
H 6.16308 0.573278 6.95782
H 8.40091 11.4258 2.59405
C 8.15355 7.17618 5.3171
C 11.8316 5.52077 0.399051
H 8.3099 7.40405 4.27258
H 6.8206 7.47588 1.04319
C 8.92671 7.86989 6.32409
C 12.4433 4.54782 1.30731
H 7.57703 5.17927 1.77671
C 9.32188 10.7934 6.42031
C 6.24265 1.69149 1.04588
H 8.44481 10.2856 6.05726
C 10.6478 11.579 8.17524
C 7.53227 0.894061 2.84258
C 7.41042 7.10717 7.95701
C 11.0455 5.31408 3.03283
H 6.97383 7.16797 8.92325
C 6.92767 6.09675 7.05774
C 10.8125 6.54316 2.27882
H 0.407385 5.53078 7.7748
H 10.2361 7.34015 2.73222
C 7.26935 6.12881 5.69588
C 10.9862 6.55312 0.884525
C 11.6552 1.21606 4.99648
C 8.00054 10.9332 10.1858
C 6.64364 5.1102 4.6623
C 9.99715 7.5994 10.1984
C 1.83243 10.6978 5.5361
N 0.839731 9.97528 6.29484
H 1.3061 11.4044 4.85063
H 2.34571 10.0194 4.84493
H -0.050447 10.5069 6.24156
H 0.666329 9.05765 5.83126
C 11.2365 1.31599 1.1177
N 10.5229 2.57469 0.994372
H 10.8528 0.733863 1.97956
H 10.9825 0.720666 0.216945
H 9.5104 2.40948 1.19493
H 10.6098 2.9254 0.0122192
C 4.55977 8.2572 5.83833
N 4.46723 9.07986 4.63874
H 5.14646 8.77404 6.59593
H 5.16121 7.38666 5.57082
H 5.38916 9.54289 4.46429
H 4.21217 8.49188 3.81245
C 3.1366 4.67866 2.26489
N 2.39866 5.95157 2.28329
H 2.50789 3.82575 1.96692
H 3.52623 4.52653 3.26802
H 1.93594 6.14792 1.36966
H 3.03791 6.74667 2.51226
C 11.8078 10.9979 8.89635
N 11.8865 10.6152 0.0252702
H 0.0781791 11.7407 8.78523
H 12.0916 10.0849 8.35195
H 0.0725079 9.86946 0.271117
H 12.0028 11.3932 0.694503
C 8.31769 1.13855 4.0371
N 7.72111 0.45684 5.15593
H 9.29792 0.728904 3.82565
H 8.40637 2.20017 4.23663
H 7.53788 11.972 4.95843
H 8.20941 0.686774 6.05007
C 10.3684 8.18093 6.01361
N 11.0826 6.96985 5.68554
H 10.4119 8.84191 5.1228
H 10.8808 8.66625 6.86038
H 11.997 7.20768 5.24308
H 11.1977 6.40651 6.55445
C 9.84653 4.75541 3.68847
N 9.97222 4.42046 5.10626
H 9.54569 3.86198 3.10741
H 9.08458 5.52597 3.56909
H 9.61134 3.47734 5.34319
H 9.52379 5.08757 5.75173
