172

Ni	3.2714	9.9365	8.8849
Ni	6.5126	3.1134	3.1339
O	1.2844	4.3037	4.4261
O	4.7888	8.9133	9.0030
O	4.9168	2.1990	3.2606
O	1.7911	10.9597	9.1288
O	6.0154	4.2919	4.2517
O	2.9522	8.8022	10.2091
O	0.0225	2.0650	5.3417
O	3.7499	11.1846	10.1290
N	3.9082	11.1580	7.4113
N	0.6888	2.0616	2.6738
N	2.4290	8.6167	7.5768
N	6.0403	4.4493	1.6562
C	3.8246	12.0973	5.1351
C	0.9386	1.0354	0.4170
H	3.5341	11.8980	4.1361
H	6.0490	11.2877	0.7457
C	4.7642	0.6117	5.4276
C	2.0774	0.2837	0.7682
C	5.2631	0.6013	6.7534
C	2.6061	0.5870	2.0371
H	0.0984	11.7890	6.1236
H	3.5737	0.2003	2.2783
C	2.3885	7.1758	5.5799
C	6.3051	6.8471	0.9806
C	3.1122	7.9494	6.5846
C	6.8453	5.5680	1.4313
H	4.1563	8.1803	6.4221
H	0.3360	4.0148	0.9211
C	3.3379	11.1999	6.1598
C	0.1730	1.7679	1.4244
H	2.5042	10.5621	5.9351
H	5.2927	1.0793	1.2904
C	4.9249	12.0612	7.6698
C	1.9202	1.4901	2.9683
H	5.4536	12.0022	8.6026
H	2.3842	1.7149	3.9170
C	1.1048	8.2630	7.7458
C	4.7626	4.5372	1.1732
H	0.5340	8.7773	8.4941
H	4.1503	3.6459	1.1735
C	0.4591	7.2158	6.9582
C	4.1678	5.8221	0.7673
C	1.1607	6.5091	5.9536
C	4.9627	6.9773	0.5574
C	5.4946	1.5071	4.3094
C	2.4848	11.6819	10.0621
C	0.5872	5.1054	5.2627
C	4.1860	8.2757	10.0528
Ni	8.9295	9.0858	8.5781
Ni	12.2975	3.3324	4.0375
O	8.0615	4.0415	3.4601
O	10.4057	8.0456	8.7398
O	10.7517	2.3236	4.0517
O	7.4343	10.1064	8.8007
O	11.8069	4.5916	5.3174
O	8.4571	7.8320	9.7661
O	6.7596	1.9445	4.4571
O	9.3480	10.1000	9.8760
N	9.6596	10.4490	7.2702
N	7.2362	1.7366	1.8372
N	8.2664	7.9735	7.1177
N	11.7025	4.6653	2.5676
C	9.2933	12.1757	5.5832
C	6.7297	12.1126	0.7719
C	10.6800	0.1265	5.6442
C	8.0350	11.9042	0.3665
C	11.5418	11.7244	6.2890
C	9.0291	0.1894	0.9803
C	8.6425	6.7718	5.0363
C	11.2662	5.2236	0.2054
H	8.9996	6.8597	4.0433
H	6.9144	7.7331	1.0536
C	9.0347	7.7345	6.0094
C	11.9453	4.4832	1.2233
H	9.9817	8.2345	5.8986
H	7.9024	5.5085	1.6243
C	8.8324	11.3803	6.6824
C	6.3278	0.8137	1.3599
H	7.7736	11.3290	6.8575
H	11.6687	2.0615	1.1979
C	11.0085	10.5878	7.0189
C	8.5975	1.4223	1.6823
H	11.6705	9.8362	7.3460
H	9.3405	2.0889	2.0830
C	7.1056	7.2557	7.2765
C	11.0131	5.8255	2.8926
H	6.5061	7.4299	8.1500
H	11.0504	6.2023	3.8944
C	6.7557	6.1898	6.3840
C	10.4187	6.6799	1.8813
H	11.9214	7.0290	7.0943
H	9.9493	7.6041	2.1752
C	7.6176	5.8678	5.3000
C	10.5576	6.3968	0.5104
C	11.2671	1.5775	5.0845
C	8.1645	10.6644	9.8149
C	7.2386	4.7628	4.3021
C	9.6998	7.3240	9.6733
P	6.1715	2.0268	7.3534
C	7.9680	1.9498	7.3128
H	8.2905	1.0377	7.8358
H	8.3423	2.7884	7.9184
H	8.3675	2.0360	6.2877
C	5.8566	2.3720	9.0653
H	6.1082	3.4105	9.3063
H	6.6348	1.7999	9.5597
H	4.8242	2.0958	9.3604
P	0.2586	1.1285	8.9758
C	11.0374	1.4649	8.5798
H	10.4873	0.5106	8.5036
H	10.5648	2.0707	9.3739
H	10.9904	2.0150	7.6326
C	1.6654	1.2440	7.8161
H	2.6176	1.2687	8.3802
H	1.6609	0.3695	7.1568
H	1.6506	2.1360	7.1822
P	2.4563	7.8730	3.9486
C	4.0883	8.5632	3.5585
H	4.3632	9.3296	4.3063
H	4.0618	9.0348	2.5570
H	4.8433	7.7501	3.5724
C	1.1235	9.0982	3.7839
H	0.2126	8.5954	3.3996
H	1.4336	9.8991	3.0823
H	0.8765	9.5384	4.7687
P	2.4000	5.9162	0.6952
C	2.2095	5.1664	2.2636
H	3.0608	5.3648	2.9314
H	2.1185	4.0776	2.1430
H	1.3507	5.6532	2.7136
C	1.2143	7.3060	0.8067
H	0.5205	7.4734	10.1128
H	1.5876	8.2099	1.2962
H	0.3947	7.0506	1.4683
P	8.5870	11.5876	4.0125
C	6.8162	11.1448	4.0638
H	6.4508	11.0597	5.1003
H	6.6233	10.1760	3.5643
H	6.2285	11.8469	3.4748
C	9.2587	9.9397	3.6227
H	10.1396	9.7201	4.2509
H	9.4978	9.8723	2.5457
H	8.5117	9.1559	3.8182
P	10.7783	12.0423	1.1490
C	11.5418	11.8864	2.7421
H	11.5056	10.8651	3.1205
H	11.0029	0.0838	3.2851
H	0.1099	12.0995	2.7283
C	11.8641	10.8098	0.3222
H	11.6527	10.9593	9.5076
H	11.5912	9.7725	0.6081
H	0.3784	10.8812	0.7165
P	5.3352	5.1308	6.7891
C	4.6712	5.3670	8.3733
H	5.5547	5.4759	9.0160
H	4.0302	6.2594	8.3483
H	4.0563	4.4858	8.6502
C	3.9320	4.5454	5.8060
H	4.0614	3.4817	5.5414
H	3.0134	4.5943	6.4172
H	3.8423	5.1605	4.9032
P	11.3784	4.8107	8.8036
C	0.5857	4.4014	8.4152
H	1.2195	5.2974	8.3826
H	1.0221	3.7505	9.1890
H	0.5874	3.8939	7.4511
C	10.0310	4.8361	7.6052
H	9.0608	4.9556	8.1286
H	10.1876	5.6820	6.9348
H	10.0365	3.9199	6.9918
