172

Ni	2.5103	9.6775	8.5568
Ni	6.1155	3.1568	3.3844
O	1.3069	4.3072	4.2736
O	3.6329	8.2768	8.7792
O	4.7746	1.9643	3.6732
O	1.4208	11.1419	8.5575
O	5.6979	4.4485	4.6389
O	3.6331	8.2770	8.7791
O	0.3121	2.0546	5.3513
O	2.9888	10.5076	9.9683
N	3.9004	10.6621	7.3825
N	0.9628	1.8885	2.6696
N	1.6714	8.7078	7.0732
N	5.2674	4.2943	1.9181
C	4.7100	11.4551	5.1603
C	0.9408	0.8799	0.4712
H	4.6470	11.3364	4.0880
H	7.4937	0.9505	9.1265
C	5.2169	0.1302	5.6674
C	1.7474	12.3650	0.7254
C	5.3843	0.1241	7.0972
C	2.1787	12.3147	2.1429
H	12.0039	0.6887	7.7153
H	2.7626	11.4811	2.5002
C	1.8144	6.9894	5.3219
C	4.8298	5.1716	9.9438
H	2.3367	6.6338	4.4414
H	10.8585	4.7114	9.3026
C	2.3207	8.1039	5.9904
C	5.8221	4.5178	0.6664
H	3.1443	8.4902	5.5232
C	3.8730	10.6342	5.9861
C	0.2742	1.5097	1.5524
H	2.9557	10.3988	5.5101
H	6.2005	2.3550	0.1603
C	4.8000	11.5744	7.9370
C	1.8756	0.9349	3.0564
C	0.6763	8.0049	7.6499
C	4.4042	5.3031	2.3258
H	3.9832	5.2885	3.3165
C	0.1040	6.8276	6.9652
C	4.0306	6.3743	1.4406
H	7.5935	4.6687	6.9430
H	3.5608	7.2300	1.8716
C	0.7531	6.2813	5.8107
C	4.3083	6.2933	0.0387
C	5.5251	1.4169	4.7040
C	2.0663	11.4356	9.7710
C	0.4762	4.8824	5.1873
C	3.2650	7.0880	9.2407
Ni	9.1327	9.0864	8.6525
Ni	0.0208	3.1326	3.9294
O	7.4583	4.2505	3.3979
O	10.4847	7.9625	8.8999
O	11.3134	1.8681	3.9220
O	7.7436	10.3545	8.7158
O	11.7743	4.2690	5.1375
O	8.5291	7.8000	9.7807
O	6.5978	2.1461	4.7889
O	9.3348	10.0647	10.1154
N	10.0826	10.4245	7.4874
N	6.9158	1.7948	2.0814
N	8.5718	7.9097	7.0662
N	11.9085	4.4134	2.3526
C	10.1905	11.7078	5.3791
C	7.4064	0.8212	10.1936
H	9.8960	11.7324	4.3504
H	0.5322	1.1620	9.7226
C	11.1940	0.0544	5.8503
C	8.0730	12.1366	0.5106
C	11.5432	12.3863	7.1962
C	8.1811	12.2124	1.9324
H	6.0484	0.8462	7.5393
H	8.7855	11.4886	2.4430
C	8.5443	7.0196	4.7830
C	11.1238	4.9775	0.0787
H	8.7590	7.1651	3.7499
H	4.8011	4.7858	8.9324
C	9.0598	7.9547	5.7685
C	11.9969	4.2340	0.9479
H	9.9308	8.5344	5.5240
C	9.5070	10.8230	6.2889
C	6.9443	1.8358	0.6964
H	8.5186	10.4709	6.0253
H	11.8334	1.8726	1.3962
C	11.1082	11.2441	7.9702
C	7.7600	0.8947	2.6506
C	7.8359	6.7526	7.3563
C	11.3526	5.6508	2.7334
H	11.4266	6.0116	3.7310
C	7.9672	5.6150	6.5660
C	10.6878	6.5274	1.8253
H	11.7348	6.3330	7.3607
H	10.4321	7.5272	2.1541
C	7.8571	5.8474	5.2273
C	10.5144	6.1848	0.4844
C	11.8206	1.2710	4.9882
C	8.2727	10.8134	9.8942
C	6.9341	4.9832	4.3279
C	9.7312	7.2169	9.7155
P	5.3245	11.4055	9.6869
C	5.5287	10.1228	0.8024
H	5.1102	9.1474	0.5536
H	4.8410	10.4260	1.6202
H	6.5114	10.0006	1.2942
C	4.8455	0.1958	0.3545
H	4.3242	1.0720	10.0238
H	5.3410	0.2571	1.3258
H	4.0534	12.3447	0.8446
P	2.5598	0.9978	4.7188
C	3.0079	2.5886	5.5829
H	3.3626	3.3652	4.8814
H	2.1941	3.0171	6.1781
H	3.7964	2.4111	6.3365
C	1.8077	0.0058	5.9794
H	1.2671	11.6577	5.5451
H	2.5342	12.4019	6.7542
H	1.2481	0.6050	6.6553
P	0.5158	8.2385	9.4972
C	1.5763	8.8012	0.7808
H	1.4412	9.8254	1.0209
H	2.6413	8.6277	0.7578
H	1.1870	8.3169	1.7003
C	0.5884	6.6391	10.0944
H	0.2063	6.0306	9.2926
H	0.3460	6.6288	0.7844
H	1.7552	6.2694	0.1742
P	7.4640	4.9850	0.6088
C	8.2888	4.0043	9.7476
H	9.3050	3.7201	0.1062
H	8.3445	2.9335	9.6742
H	8.6380	4.4869	8.8342
C	7.3726	6.6004	1.4605
H	6.7438	7.2909	0.9107
H	8.3137	7.0794	1.6623
H	6.8452	6.5196	2.4125
P	11.4059	11.4526	9.7443
C	11.6027	10.5469	1.1243
H	11.5767	9.4433	1.0113
H	10.6993	10.7836	1.7021
H	12.3778	10.8681	1.8330
C	10.4497	0.4387	9.9445
H	10.9521	1.3582	9.6245
H	10.3729	0.5052	0.7268
H	9.6392	0.3986	9.2163
P	8.8691	1.6200	3.7816
C	8.9508	2.2754	5.5649
H	8.2074	1.8656	6.2762
H	8.9011	3.3744	5.5449
H	9.8750	2.1204	6.1131
C	9.5127	3.0026	2.7850
H	10.1889	2.6250	2.0634
H	9.8891	3.7756	3.4820
H	8.8806	3.4480	2.0760
P	6.1958	6.9468	7.6895
C	6.1921	8.3877	8.6073
H	5.6957	7.9472	9.4179
H	5.8006	9.2220	8.0188
H	6.6971	8.6898	9.4758
C	5.3872	7.3330	6.1254
H	4.6937	6.5243	5.8176
H	4.9043	8.2705	6.3233
H	6.0684	7.6105	5.3073
P	1.0448	3.7631	0.1254
C	2.5317	3.4431	1.0148
H	2.4263	3.8366	2.0371
H	2.8651	2.3984	0.9938
H	3.2461	3.9258	0.4070
C	1.0157	3.6054	8.5957
H	1.4724	4.5277	8.1819
H	1.7196	2.7727	8.3994
H	0.0469	3.3991	8.0976
