188

Ni	3.1374	8.1102	9.3504
Ni	-0.0866	2.6417	3.7982
O	1.4162	3.8351	4.2274
O	4.6898	6.9267	9.7892
O	5.1720	1.4215	4.0997
O	1.6069	9.3259	9.7107
O	6.2819	3.9656	5.2200
O	2.7675	6.7685	10.7863
O	0.2499	1.2483	5.1803
O	3.5076	9.4934	10.7482
N	3.9515	9.2464	7.9858
N	0.7309	1.5120	2.4239
N	2.3936	6.9346	8.0111
N	5.9677	3.8364	2.4359
C	3.8150	10.4925	5.9576
C	0.5640	0.2657	0.3971
H	3.2106	0.1273	5.1471
H	6.4771	10.6366	10.7790
C	5.1884	10.7557	6.0462
C	1.9374	10.7584	0.4663
C	5.9376	10.2474	7.1110
C	2.7030	0.5083	1.5183
H	0.2035	10.4451	7.2143
C	2.6285	5.6050	6.0532
C	6.2063	5.1694	0.4714
C	3.1721	6.4346	7.0301
C	6.7456	4.3406	1.4565
H	4.2275	6.7060	7.0481
H	1.0036	4.0727	1.4775
C	3.2202	9.7241	6.9589
C	-0.0149	1.0336	1.4079
H	2.1562	9.4853	6.9582
H	5.7203	1.2716	1.4238
C	5.2780	9.4817	8.0736
C	2.0583	1.2768	2.4899
H	5.7970	9.0451	8.9248
H	2.5923	1.7148	3.3313
C	1.0718	6.6716	8.0742
C	4.6460	4.1040	2.4865
H	0.5185	7.1363	8.8888
H	4.0855	3.6429	3.2979
C	0.4637	5.8416	7.1332
C	4.0412	4.9316	1.5380
H	2.9776	5.1455	1.6093
C	1.2636	5.3053	6.1217
C	4.8393	5.4680	0.5235
C	5.8202	0.8815	5.0765
C	2.2799	9.8645	10.6727
C	0.7022	4.3674	5.1639
C	3.9951	6.3910	10.7345
Ni	9.9358	8.1102	9.3504
Ni	6.7119	2.6417	3.7982
O	8.2147	3.8351	4.2274
O	11.4883	6.9267	9.7892
O	11.9704	1.4215	4.0997
O	8.4053	9.3259	9.7107
O	13.0804	3.9656	5.2200
O	9.5659	6.7685	10.7863
O	7.0483	1.2483	5.1803
O	10.3060	9.4934	10.7482
N	10.7499	9.2464	7.9858
N	7.5293	1.5120	2.4239
N	9.1920	6.9346	8.0111
N	12.7661	3.8364	2.4359
C	10.6134	10.4925	5.9576
C	7.3625	0.2657	0.3971
H	13.2756	10.6366	10.7790
C	11.9868	10.7557	6.0462
C	8.7359	10.7584	0.4663
C	12.7360	10.2474	7.1110
C	9.5015	0.5083	1.5183
C	9.4270	5.6050	6.0532
C	13.0048	5.1694	0.4714
H	10.0588	5.1898	5.2742
C	9.9706	6.4346	7.0301
C	13.5441	4.3406	1.4565
H	11.0260	6.7060	7.0481
H	7.8020	4.0727	1.4775
C	10.0187	9.7241	6.9589
C	6.7836	1.0336	1.4079
H	8.9547	9.4853	6.9582
H	12.5188	1.2716	1.4238
C	12.0764	9.4817	8.0736
C	8.8568	1.2768	2.4899
H	12.5955	9.0451	8.9248
H	9.3908	1.7148	3.3313
C	7.8703	6.6716	8.0742
C	11.4445	4.1040	2.4865
H	7.3170	7.1363	8.8888
H	10.8840	3.6429	3.2979
C	7.2622	5.8416	7.1332
C	10.8396	4.9316	1.5380
H	12.9987	5.6216	7.2108
H	9.7760	5.1455	1.6093
C	8.0620	5.3053	6.1217
C	11.6378	5.4680	0.5235
C	12.6187	0.8815	5.0765
C	9.0784	9.8645	10.6727
C	7.5006	4.3674	5.1639
C	10.7935	6.3910	10.7345
O	7.2738	10.5039	7.1888
C	8.1218	10.0617	8.1858
C	9.5362	10.5654	7.9042
H	8.1257	8.9493	8.2079
H	7.7808	10.4551	9.1690
C	10.5136	10.1023	8.9805
H	9.5323	11.6767	7.8716
H	9.8748	10.1815	6.9173
H	10.2062	10.4914	9.9746
H	11.5304	10.4833	8.7485
H	10.5495	8.9926	9.0180
O	4.0404	0.2524	1.5760
C	4.9037	0.6972	2.5586
C	6.3136	0.1931	2.2563
H	4.9077	1.8097	2.5778
H	4.5782	0.3063	3.5480
C	7.3076	0.6591	3.3160
H	6.3095	-0.9183	2.2265
H	6.6367	0.5745	1.2632
H	7.0158	0.2724	4.3158
H	8.3208	0.2777	3.0692
H	7.3439	1.7689	3.3501
O	3.3880	5.0860	5.0454
C	4.7403	5.3030	4.8647
C	5.2106	4.5457	3.6242
H	4.9296	6.3904	4.7249
H	5.3004	4.9361	5.7533
C	6.7025	4.7538	3.3807
H	5.0129	3.4598	3.7579
H	4.6447	4.9039	2.7367
H	7.2906	4.3839	4.2476
H	7.0134	4.1924	2.4746
H	6.9216	5.8316	3.2240
O	6.9763	5.6880	-0.5295
C	8.3309	5.4734	-0.6959
C	8.8125	6.2295	-1.9327
H	8.5237	4.3861	-0.8318
H	8.8810	5.8428	0.1979
C	10.3073	6.0239	-2.1604
H	8.6113	7.3152	-1.8029
H	8.2566	5.8686	-2.8253
H	10.8856	6.3964	-1.2881
H	10.6265	6.5844	-3.0641
H	10.5300	4.9463	-2.3130
O	9.8945	10.9860	4.9084
C	8.5408	10.8008	4.7034
C	8.1239	11.5131	3.4180
H	8.3217	9.7141	4.6088
H	7.9711	11.2250	5.5597
C	6.6327	11.3380	3.1464
H	8.3516	12.5977	3.5068
H	8.6997	11.0974	2.5626
H	6.0355	11.7650	3.9802
H	6.3610	11.8656	2.2079
H	6.3845	10.2610	3.0337
O	10.8388	0.2524	1.5760
C	11.7023	0.6975	2.5584
C	13.1121	0.1932	2.2562
H	11.3767	0.3068	3.5480
H	11.7062	1.8099	2.5774
C	14.1062	0.6596	3.3157
H	13.4352	0.5743	1.2630
H	13.1080	-0.9182	2.2268
H	14.1424	1.7694	3.3494
H	15.1193	0.2781	3.0689
H	13.8144	0.2732	4.3156
O	5.9330	5.5508	7.1808
C	5.0404	6.0168	8.1267
C	3.6506	5.4590	7.8258
H	5.0052	7.1283	8.0928
H	5.3591	5.6826	9.1389
C	2.6254	5.9460	8.8457
H	3.6860	4.3480	7.8492
H	3.3347	5.7836	6.8104
H	2.9100	5.6155	9.8674
H	1.6277	5.5246	8.6007
H	2.5578	7.0547	8.8261
O	13.7748	5.6880	-0.5295
C	15.1294	5.4734	-0.6959
C	15.6110	6.2295	-1.9327
H	15.3222	4.3861	-0.8318
H	15.6794	5.8428	0.1979
C	17.1057	6.0239	-2.1604
H	15.4098	7.3152	-1.8029
H	15.0551	5.8686	-2.8253
H	17.6841	6.3964	-1.2881
H	17.4249	6.5844	-3.0641
H	17.3285	4.9463	-2.3130
