132

Ni	3.1374	8.1102	9.3504
Ni	-0.0866	2.6417	3.7982
O	1.4162	3.8351	4.2274
O	4.6898	6.9267	9.7892
O	5.1720	1.4215	4.0997
O	1.6069	9.3259	9.7107
O	6.2819	3.9656	5.2200
O	2.7675	6.7685	10.7863
O	0.2499	1.2483	5.1803
O	3.5076	9.4934	10.7482
N	3.9515	9.2464	7.9858
N	0.7309	1.5120	2.4239
N	2.3936	6.9346	8.0111
N	5.9677	3.8364	2.4359
C	3.8150	10.4925	5.9576
C	0.5640	0.2657	0.3971
H	3.2106	0.1273	5.1471
C	5.1884	10.7557	6.0462
C	1.9374	10.7584	0.4663
C	5.9376	10.2474	7.1110
C	2.7030	0.5083	1.5183
H	0.2035	10.4451	7.2143
H	3.7695	0.3138	1.6056
C	2.6285	5.6050	6.0532
C	6.2063	5.1694	0.4714
H	-0.2175	5.5785	10.8821
C	3.1721	6.4346	7.0301
C	6.7456	4.3406	1.4565
H	4.2275	6.7060	7.0481
H	1.0036	4.0727	1.4775
C	3.2202	9.7241	6.9589
C	-0.0149	1.0336	1.4079
H	2.1562	9.4853	6.9582
H	5.7203	1.2716	1.4238
C	5.2780	9.4817	8.0736
C	2.0583	1.2768	2.4899
H	5.7970	9.0451	8.9248
H	2.5923	1.7148	3.3313
C	1.0718	6.6716	8.0742
C	4.6460	4.1040	2.4865
H	0.5185	7.1363	8.8888
H	4.0855	3.6429	3.2979
C	0.4637	5.8416	7.1332
C	4.0412	4.9316	1.5380
H	6.2003	5.6216	7.2108
H	2.9776	5.1455	1.6093
C	1.2636	5.3053	6.1217
C	4.8393	5.4680	0.5235
C	5.8202	0.8815	5.0765
C	2.2799	9.8645	10.6727
C	0.7022	4.3674	5.1639
C	3.9951	6.3910	10.7345
Ni	9.9358	8.1102	9.3504
Ni	6.7119	2.6417	3.7982
O	8.2147	3.8351	4.2274
O	11.4883	6.9267	9.7892
O	11.9704	1.4215	4.0997
O	8.4053	9.3259	9.7107
O	13.0804	3.9656	5.2200
O	9.5659	6.7685	10.7863
O	7.0483	1.2483	5.1803
O	10.3060	9.4934	10.7482
N	10.7499	9.2464	7.9858
N	7.5293	1.5120	2.4239
N	9.1920	6.9346	8.0111
N	12.7661	3.8364	2.4359
C	10.6134	10.4925	5.9576
C	7.3625	0.2657	0.3971
C	11.9868	10.7557	6.0462
C	8.7359	10.7584	0.4663
C	12.7360	10.2474	7.1110
C	9.5015	0.5083	1.5183
H	10.5679	0.3138	1.6056
C	9.4270	5.6050	6.0532
C	13.0048	5.1694	0.4714
C	9.9706	6.4346	7.0301
C	13.5441	4.3406	1.4565
H	11.0260	6.7060	7.0481
H	7.8020	4.0727	1.4775
C	10.0187	9.7241	6.9589
C	6.7836	1.0336	1.4079
H	8.9547	9.4853	6.9582
H	12.5188	1.2716	1.4238
C	12.0764	9.4817	8.0736
C	8.8568	1.2768	2.4899
H	12.5955	9.0451	8.9248
H	9.3908	1.7148	3.3313
C	7.8703	6.6716	8.0742
C	11.4445	4.1040	2.4865
H	7.3170	7.1363	8.8888
H	10.8840	3.6429	3.2979
C	7.2622	5.8416	7.1332
C	10.8396	4.9316	1.5380
H	12.9987	5.6216	7.2108
C	8.0620	5.3053	6.1217
C	11.6378	5.4680	0.5235
C	12.6187	0.8815	5.0765
C	9.0784	9.8645	10.6727
C	7.5006	4.3674	5.1639
C	10.7935	6.3910	10.7345
C	7.4225	10.4796	7.2801
H	7.8151	9.9853	8.1952
H	7.6336	11.5647	7.3788
H	7.9787	10.0583	6.4170
C	-0.3302	-0.2330	-0.7182
H	-1.3832	0.0946	-0.5782
H	-0.3336	-1.3427	-0.7424
H	0.0103	0.1701	-1.6947
C	3.5484	5.0761	4.9735
H	4.5909	5.4377	5.1087
H	3.5807	3.9670	5.0038
H	3.2096	5.4220	3.9748
C	7.1375	5.6981	-0.5998
H	8.1792	5.3388	-0.4531
H	7.1674	6.8073	-0.5710
H	6.8097	5.3498	-1.6014
C	9.7361	10.9973	4.8320
H	8.6801	10.6733	4.9571
H	9.7371	12.1070	4.8107
H	10.0881	10.5954	3.8591
C	6.4683	-0.2330	-0.7182
H	5.4152	0.0946	-0.5782
H	6.4648	-1.3427	-0.7424
H	6.8088	0.1701	-1.6947
C	10.3469	5.0761	4.9735
H	11.3894	5.4377	5.1087
H	10.3792	3.9670	5.0038
H	10.0081	5.4220	3.9748
C	9.3558	5.1964	1.6679
H	8.9188	4.6716	2.5450
H	9.1695	6.2813	1.8102
H	8.8194	4.8307	0.7677
