664

Zn	7.5786	5.3374	5.3374
Zn	18.2534	20.4946	5.3374
Zn	18.2534	5.3374	20.4946
Zn	7.5786	20.4946	20.4946
Zn	5.3374	7.5786	5.3374
Zn	5.3374	18.2534	20.4946
Zn	20.4946	18.2534	5.3374
Zn	20.4946	7.5786	20.4946
Zn	5.3374	5.3374	7.5786
Zn	20.4946	5.3374	18.2534
Zn	5.3374	20.4946	18.2534
Zn	20.4946	20.4946	7.5786
Zn	5.3374	7.5786	20.4946
Zn	20.4946	18.2534	20.4946
Zn	5.3374	18.2534	5.3374
Zn	20.4946	7.5786	5.3374
Zn	7.5786	5.3374	20.4946
Zn	18.2534	5.3374	5.3374
Zn	18.2534	20.4946	20.4946
Zn	7.5786	20.4946	5.3374
Zn	5.3374	5.3374	18.2534
Zn	5.3374	20.4946	7.5786
Zn	20.4946	5.3374	7.5786
Zn	20.4946	20.4946	18.2534
Zn	7.5786	18.2534	18.2534
Zn	18.2534	7.5786	18.2534
Zn	18.2534	18.2534	7.5786
Zn	7.5786	7.5786	7.5786
Zn	7.5786	18.2534	7.5786
Zn	18.2534	18.2534	18.2534
Zn	18.2534	7.5786	7.5786
Zn	7.5786	7.5786	18.2534
O	6.4580	6.4580	6.4580
O	19.3740	19.3740	6.4580
O	19.3740	6.4580	19.3740
O	6.4580	19.3740	19.3740
O	6.4580	6.4580	19.3740
O	19.3740	19.3740	19.3740
O	6.4580	19.3740	6.4580
O	19.3740	6.4580	6.4580
O	7.2813	5.6347	3.4615
O	18.5507	20.1973	3.4615
O	18.5507	5.6347	22.3705
O	7.2813	20.1973	22.3705
O	3.4615	7.2813	5.6347
O	3.4615	18.5507	20.1973
O	22.3705	18.5507	5.6347
O	22.3705	7.2813	20.1973
O	5.6347	3.4615	7.2813
O	20.1973	3.4615	18.5507
O	5.6347	22.3705	18.5507
O	20.1973	22.3705	7.2813
O	5.6347	7.2813	22.3705
O	20.1973	18.5507	22.3705
O	5.6347	18.5507	3.4615
O	20.1973	7.2813	3.4615
O	7.2813	3.4615	20.1973
O	18.5507	3.4615	5.6347
O	18.5507	22.3705	20.1973
O	7.2813	22.3705	5.6347
O	3.4615	5.6347	18.5507
O	3.4615	20.1973	7.2813
O	22.3705	5.6347	7.2813
O	22.3705	20.1973	18.5507
O	7.2813	18.5507	16.3775
O	18.5507	7.2813	16.3775
O	18.5507	18.5507	9.4545
O	7.2813	7.2813	9.4545
O	3.4615	20.1973	18.5507
O	3.4615	5.6347	7.2813
O	22.3705	5.6347	18.5507
O	22.3705	20.1973	7.2813
O	5.6347	16.3775	20.1973
O	20.1973	16.3775	5.6347
O	5.6347	9.4545	5.6347
O	20.1973	9.4545	20.1973
O	5.6347	20.1973	9.4545
O	20.1973	5.6347	9.4545
O	5.6347	5.6347	16.3775
O	20.1973	20.1973	16.3775
O	7.2813	16.3775	7.2813
O	18.5507	16.3775	18.5507
O	18.5507	9.4545	7.2813
O	7.2813	9.4545	18.5507
O	3.4615	18.5507	5.6347
O	3.4615	7.2813	20.1973
O	22.3705	18.5507	20.1973
O	22.3705	7.2813	5.6347
O	20.1973	5.6347	16.3775
O	5.6347	20.1973	16.3775
O	5.6347	5.6347	9.4545
O	20.1973	20.1973	9.4545
O	16.3775	7.2813	18.5507
O	16.3775	18.5507	7.2813
O	9.4545	18.5507	18.5507
O	9.4545	7.2813	7.2813
O	18.5507	3.4615	20.1973
O	7.2813	3.4615	5.6347
O	18.5507	22.3705	5.6347
O	7.2813	22.3705	20.1973
O	18.5507	7.2813	9.4545
O	7.2813	18.5507	9.4545
O	18.5507	18.5507	16.3775
O	7.2813	7.2813	16.3775
O	20.1973	3.4615	7.2813
O	5.6347	3.4615	18.5507
O	5.6347	22.3705	7.2813
O	20.1973	22.3705	18.5507
O	16.3775	5.6347	5.6347
O	16.3775	20.1973	20.1973
O	9.4545	5.6347	20.1973
O	9.4545	20.1973	5.6347
O	20.1973	18.5507	3.4615
O	5.6347	7.2813	3.4615
O	5.6347	18.5507	22.3705
O	20.1973	7.2813	22.3705
O	16.3775	20.1973	5.6347
O	16.3775	5.6347	20.1973
O	9.4545	5.6347	5.6347
O	9.4545	20.1973	20.1973
O	18.5507	16.3775	7.2813
O	7.2813	16.3775	18.5507
O	18.5507	9.4545	18.5507
O	7.2813	9.4545	7.2813
O	18.5507	20.1973	22.3705
O	7.2813	5.6347	22.3705
O	18.5507	5.6347	3.4615
O	7.2813	20.1973	3.4615
O	20.1973	16.3775	20.1973
O	5.6347	16.3775	5.6347
O	5.6347	9.4545	20.1973
O	20.1973	9.4545	5.6347
O	16.3775	18.5507	18.5507
O	16.3775	7.2813	7.2813
O	9.4545	18.5507	7.2813
O	9.4545	7.2813	18.5507
C	6.4580	6.4580	2.8751
C	19.3740	19.3740	2.8751
C	19.3740	6.4580	22.9569
C	6.4580	19.3740	22.9569
C	2.8751	6.4580	6.4580
C	2.8751	19.3740	19.3740
C	22.9569	19.3740	6.4580
C	22.9569	6.4580	19.3740
C	6.4580	2.8751	6.4580
C	19.3740	2.8751	19.3740
C	6.4580	22.9569	19.3740
C	19.3740	22.9569	6.4580
C	6.4580	6.4580	22.9569
C	19.3740	19.3740	22.9569
C	6.4580	19.3740	2.8751
C	19.3740	6.4580	2.8751
C	6.4580	2.8751	19.3740
C	19.3740	2.8751	6.4580
C	19.3740	22.9569	19.3740
C	6.4580	22.9569	6.4580
C	2.8751	6.4580	19.3740
C	2.8751	19.3740	6.4580
C	22.9569	6.4580	6.4580
C	22.9569	19.3740	19.3740
C	6.4580	19.3740	15.7911
C	19.3740	6.4580	15.7911
C	19.3740	19.3740	10.0409
C	6.4580	6.4580	10.0409
C	6.4580	15.7911	19.3740
C	19.3740	15.7911	6.4580
C	6.4580	10.0409	6.4580
C	19.3740	10.0409	19.3740
C	6.4580	19.3740	10.0409
C	19.3740	6.4580	10.0409
C	6.4580	6.4580	15.7911
C	19.3740	19.3740	15.7911
C	6.4580	15.7911	6.4580
C	19.3740	15.7911	19.3740
C	19.3740	10.0409	6.4580
C	6.4580	10.0409	19.3740
C	15.7911	6.4580	19.3740
C	15.7911	19.3740	6.4580
C	10.0409	19.3740	19.3740
C	10.0409	6.4580	6.4580
C	15.7911	6.4580	6.4580
C	15.7911	19.3740	19.3740
C	10.0409	6.4580	19.3740
C	10.0409	19.3740	6.4580
C	6.4580	6.4580	1.3898
C	19.3740	19.3740	1.3898
C	19.3740	6.4580	24.4422
C	6.4580	19.3740	24.4422
C	1.3898	6.4580	6.4580
C	1.3898	19.3740	19.3740
C	24.4422	19.3740	6.4580
C	24.4422	6.4580	19.3740
C	6.4580	1.3898	6.4580
C	19.3740	1.3898	19.3740
C	6.4580	24.4422	19.3740
C	19.3740	24.4422	6.4580
C	6.4580	6.4580	24.4422
C	19.3740	19.3740	24.4422
C	6.4580	19.3740	1.3898
C	19.3740	6.4580	1.3898
C	6.4580	1.3898	19.3740
C	19.3740	1.3898	6.4580
C	19.3740	24.4422	19.3740
C	6.4580	24.4422	6.4580
C	1.3898	6.4580	19.3740
C	1.3898	19.3740	6.4580
C	24.4422	6.4580	6.4580
C	24.4422	19.3740	19.3740
C	6.4580	19.3740	14.3058
C	19.3740	6.4580	14.3058
C	19.3740	19.3740	11.5262
C	6.4580	6.4580	11.5262
C	6.4580	14.3058	19.3740
C	19.3740	14.3058	6.4580
C	6.4580	11.5262	6.4580
C	19.3740	11.5262	19.3740
C	6.4580	19.3740	11.5262
C	19.3740	6.4580	11.5262
C	6.4580	6.4580	14.3058
C	19.3740	19.3740	14.3058
C	6.4580	14.3058	6.4580
C	19.3740	14.3058	19.3740
C	19.3740	11.5262	6.4580
C	6.4580	11.5262	19.3740
C	14.3058	6.4580	19.3740
C	14.3058	19.3740	6.4580
C	11.5262	19.3740	19.3740
C	11.5262	6.4580	6.4580
C	14.3058	6.4580	6.4580
C	14.3058	19.3740	19.3740
C	11.5262	6.4580	19.3740
C	11.5262	19.3740	6.4580
C	7.3079	5.6081	0.6949
C	18.5241	20.2239	0.6949
C	18.5241	5.6081	25.1371
C	7.3079	20.2239	25.1371
C	0.6949	7.3079	5.6081
C	0.6949	18.5241	20.2239
C	25.1371	18.5241	5.6081
C	25.1371	7.3079	20.2239
C	5.6081	0.6949	7.3079
C	20.2239	0.6949	18.5241
C	5.6081	25.1371	18.5241
C	20.2239	25.1371	7.3079
C	5.6081	7.3079	25.1371
C	20.2239	18.5241	25.1371
C	5.6081	18.5241	0.6949
C	20.2239	7.3079	0.6949
C	7.3079	0.6949	20.2239
C	18.5241	0.6949	5.6081
C	18.5241	25.1371	20.2239
C	7.3079	25.1371	5.6081
C	0.6949	5.6081	18.5241
C	0.6949	20.2239	7.3079
C	25.1371	5.6081	7.3079
C	25.1371	20.2239	18.5241
C	7.3079	18.5241	13.6109
C	18.5241	7.3079	13.6109
C	18.5241	18.5241	12.2211
C	7.3079	7.3079	12.2211
C	0.6949	20.2239	18.5241
C	0.6949	5.6081	7.3079
C	25.1371	5.6081	18.5241
C	25.1371	20.2239	7.3079
C	5.6081	13.6109	20.2239
C	20.2239	13.6109	5.6081
C	5.6081	12.2211	5.6081
C	20.2239	12.2211	20.2239
C	5.6081	20.2239	12.2211
C	20.2239	5.6081	12.2211
C	5.6081	5.6081	13.6109
C	20.2239	20.2239	13.6109
C	7.3079	13.6109	7.3079
C	18.5241	13.6109	18.5241
C	18.5241	12.2211	7.3079
C	7.3079	12.2211	18.5241
C	0.6949	18.5241	5.6081
C	0.6949	7.3079	20.2239
C	25.1371	18.5241	20.2239
C	25.1371	7.3079	5.6081
C	20.2239	5.6081	13.6109
C	5.6081	20.2239	13.6109
C	5.6081	5.6081	12.2211
C	20.2239	20.2239	12.2211
C	13.6109	7.3079	18.5241
C	13.6109	18.5241	7.3079
C	12.2211	18.5241	18.5241
C	12.2211	7.3079	7.3079
C	18.5241	0.6949	20.2239
C	7.3079	0.6949	5.6081
C	18.5241	25.1371	5.6081
C	7.3079	25.1371	20.2239
C	18.5241	7.3079	12.2211
C	7.3079	18.5241	12.2211
C	18.5241	18.5241	13.6109
C	7.3079	7.3079	13.6109
C	20.2239	0.6949	7.3079
C	5.6081	0.6949	18.5241
C	5.6081	25.1371	7.3079
C	20.2239	25.1371	18.5241
C	13.6109	5.6081	5.6081
C	13.6109	20.2239	20.2239
C	12.2211	5.6081	20.2239
C	12.2211	20.2239	5.6081
C	20.2239	18.5241	0.6949
C	5.6081	7.3079	0.6949
C	5.6081	18.5241	25.1371
C	20.2239	7.3079	25.1371
C	13.6109	20.2239	5.6081
C	13.6109	5.6081	20.2239
C	12.2211	5.6081	5.6081
C	12.2211	20.2239	20.2239
C	18.5241	13.6109	7.3079
C	7.3079	13.6109	18.5241
C	18.5241	12.2211	18.5241
C	7.3079	12.2211	7.3079
C	18.5241	20.2239	25.1371
C	7.3079	5.6081	25.1371
C	18.5241	5.6081	0.6949
C	7.3079	20.2239	0.6949
C	20.2239	13.6109	20.2239
C	5.6081	13.6109	5.6081
C	5.6081	12.2211	20.2239
C	20.2239	12.2211	5.6081
C	13.6109	18.5241	18.5241
C	13.6109	7.3079	7.3079
C	12.2211	18.5241	7.3079
C	12.2211	7.3079	18.5241
H	7.8762	5.0398	1.1573
H	17.9558	20.7922	1.1573
H	17.9558	5.0398	24.6747
H	7.8762	20.7922	24.6747
H	1.1573	7.8762	5.0398
H	1.1573	17.9558	20.7922
H	24.6747	17.9558	5.0398
H	24.6747	7.8762	20.7922
H	5.0398	1.1573	7.8762
H	20.7922	1.1573	17.9558
H	5.0398	24.6747	17.9558
H	20.7922	24.6747	7.8762
H	20.7922	17.9558	24.6747
H	20.7922	7.8762	1.1573
H	17.9558	24.6747	20.7922
H	7.8762	24.6747	5.0398
H	1.1573	5.0398	17.9558
H	24.6747	5.0398	7.8762
H	7.8762	17.9558	14.0733
H	17.9558	7.8762	14.0733
H	17.9558	17.9558	11.7587
H	7.8762	7.8762	11.7587
H	1.1573	20.7922	17.9558
H	1.1573	5.0398	7.8762
H	24.6747	5.0398	17.9558
H	24.6747	20.7922	7.8762
H	5.0398	14.0733	20.7922
H	20.7922	14.0733	5.0398
H	5.0398	11.7587	5.0398
H	20.7922	11.7587	20.7922
H	5.0398	20.7922	11.7587
H	20.7922	5.0398	11.7587
H	5.0398	5.0398	14.0733
H	7.8762	14.0733	7.8762
H	7.8762	11.7587	17.9558
H	1.1573	17.9558	5.0398
H	24.6747	17.9558	20.7922
H	20.7922	5.0398	14.0733
H	5.0398	20.7922	14.0733
H	5.0398	5.0398	11.7587
H	20.7922	20.7922	11.7587
H	14.0733	7.8762	17.9558
H	14.0733	17.9558	7.8762
H	11.7587	17.9558	17.9558
H	11.7587	7.8762	7.8762
H	17.9558	1.1573	20.7922
H	7.8762	1.1573	5.0398
H	17.9558	24.6747	5.0398
H	7.8762	24.6747	20.7922
H	17.9558	17.9558	14.0733
H	20.7922	1.1573	7.8762
H	5.0398	1.1573	17.9558
H	14.0733	5.0398	5.0398
H	20.7922	17.9558	1.1573
H	5.0398	7.8762	1.1573
H	5.0398	17.9558	24.6747
H	20.7922	7.8762	24.6747
H	14.0733	20.7922	5.0398
H	14.0733	5.0398	20.7922
H	11.7587	5.0398	5.0398
H	11.7587	20.7922	20.7922
H	17.9558	14.0733	7.8762
H	7.8762	14.0733	17.9558
H	17.9558	11.7587	17.9558
H	7.8762	11.7587	7.8762
H	7.8762	5.0398	24.6747
H	7.8762	20.7922	1.1573
H	20.7922	14.0733	20.7922
H	20.7922	11.7587	5.0398
H	14.0733	17.9558	17.9558
H	11.7587	17.9558	7.8762
H	11.7587	7.8762	17.9558
O	4.7707	8.1453	24.4314
C	3.8749	9.0413	24.9825
C	3.1415	9.7746	23.8610
H	3.1356	8.4943	25.6086
H	4.4221	9.7806	25.6084
C	2.1376	10.7788	24.4196
H	3.8799	10.3135	23.2281
H	2.6023	9.0362	23.2284
H	2.6572	11.5399	25.0400
H	1.6219	11.2944	23.5823
H	1.3766	10.2594	25.0403
O	17.6867	21.0613	24.4314
C	16.7909	21.9573	24.9825
C	16.0575	22.6906	23.8610
H	16.0516	21.4103	25.6086
H	17.3381	22.6966	25.6084
C	15.0536	23.6948	24.4196
H	16.7959	23.2295	23.2281
H	15.5183	21.9522	23.2284
H	15.5732	24.4559	25.0400
H	14.5379	24.2104	23.5823
H	14.2926	23.1754	25.0403
O	17.6867	4.7707	1.4006
C	16.7909	3.8747	0.8495
C	16.0575	3.1414	1.9710
H	16.0516	4.4217	0.2234
H	17.3381	3.1354	0.2236
C	15.0536	2.1372	1.4124
H	16.7959	2.6025	2.6039
H	15.5183	3.8798	2.6036
H	15.5732	1.3761	0.7920
H	14.5379	1.6216	2.2497
H	14.2926	2.6566	0.7917
O	4.7707	17.6867	1.4006
C	3.8747	16.7909	0.8495
C	3.1414	16.0575	1.9710
H	4.4217	16.0516	0.2234
H	3.1354	17.3381	0.2236
C	2.1372	15.0536	1.4124
H	2.6025	16.7959	2.6039
H	3.8798	15.5183	2.6036
H	1.3761	15.5732	0.7920
H	1.6216	14.5379	2.2497
H	2.6566	14.2926	0.7917
O	24.4314	8.1453	4.7707
C	24.9825	9.0411	3.8747
C	23.8610	9.7745	3.1414
H	25.6086	9.7804	4.4217
H	25.6084	8.4939	3.1354
C	24.4196	10.7784	2.1372
H	23.2281	9.0361	2.6025
H	23.2284	10.3137	3.8798
H	25.0400	10.2588	1.3761
H	23.5823	11.2941	1.6216
H	25.0403	11.5394	2.6566
O	24.4314	21.0613	17.6867
C	24.9825	21.9573	16.7909
C	23.8610	22.6906	16.0575
H	25.6086	21.4103	16.0516
H	25.6084	22.6966	17.3381
C	24.4196	23.6948	15.0536
H	23.2281	23.2295	16.7959
H	23.2284	21.9522	15.5183
H	25.0400	24.4559	15.5732
H	23.5823	24.2104	14.5379
H	25.0403	23.1754	14.2926
O	1.4006	21.0613	8.1453
C	0.8495	21.9573	9.0411
C	1.9710	22.6906	9.7745
H	0.2234	21.4103	9.7804
H	0.2236	22.6966	8.4939
C	1.4124	23.6948	10.7784
H	2.6039	23.2295	9.0361
H	2.6036	21.9522	10.3137
H	0.7920	24.4559	10.2588
H	2.2497	24.2104	11.2941
H	0.7917	23.1754	11.5394
O	1.4006	8.1453	21.0613
C	0.8495	9.0411	21.9573
C	1.9710	9.7745	22.6906
H	0.2234	9.7804	21.4103
H	0.2236	8.4939	22.6966
C	1.4124	10.7784	23.6948
H	2.6039	9.0361	23.2295
H	2.6036	10.3137	21.9522
H	0.7920	10.2588	24.4559
H	2.2497	11.2941	24.2104
H	0.7917	11.5394	23.1754
O	4.7707	24.4314	8.1453
C	3.8747	24.9825	9.0411
C	3.1414	23.8610	9.7745
H	4.4217	25.6086	9.7804
H	3.1354	25.6084	8.4939
C	2.1372	24.4196	10.7784
H	2.6025	23.2281	9.0361
H	3.8798	23.2284	10.3137
H	1.3761	25.0400	10.2588
H	1.6216	23.5823	11.2941
H	2.6566	25.0403	11.5394
O	21.0613	24.4314	17.6867
C	21.9573	24.9825	16.7909
C	22.6906	23.8610	16.0575
H	21.4103	25.6086	16.0516
H	22.6966	25.6084	17.3381
C	23.6948	24.4196	15.0536
H	23.2295	23.2281	16.7959
H	21.9522	23.2284	15.5183
H	24.4559	25.0400	15.5732
H	24.2104	23.5823	14.5379
H	23.1754	25.0403	14.2926
O	8.1453	1.4006	21.0613
C	9.0411	0.8495	21.9573
C	9.7745	1.9710	22.6906
H	9.7804	0.2234	21.4103
H	8.4939	0.2236	22.6966
C	10.7784	1.4124	23.6948
H	9.0361	2.6039	23.2295
H	10.3137	2.6036	21.9522
H	10.2588	0.7920	24.4559
H	11.2941	2.2497	24.2104
H	11.5394	0.7917	23.1754
O	17.6867	1.4006	4.7707
C	16.7909	0.8495	3.8747
C	16.0575	1.9710	3.1414
H	16.0516	0.2234	4.4217
H	17.3381	0.2236	3.1354
C	15.0536	1.4124	2.1372
H	16.7959	2.6039	2.6025
H	15.5183	2.6036	3.8798
H	15.5732	0.7920	1.3761
H	14.5379	2.2497	1.6216
H	14.2926	0.7917	2.6566
O	8.1453	17.6867	11.5154
C	9.0411	16.7907	12.0665
C	9.7745	16.0574	10.9450
H	9.7804	17.3377	12.6926
H	8.4939	16.0514	12.6924
C	10.7784	15.0532	11.5036
H	9.0361	15.5185	10.3121
H	10.3137	16.7958	10.3124
H	10.2588	14.2921	12.1240
H	11.2941	14.5376	10.6663
H	11.5394	15.5726	12.1243
O	17.6867	8.1453	11.5154
C	16.7909	9.0413	12.0665
C	16.0575	9.7746	10.9450
H	16.0516	8.4943	12.6926
H	17.3381	9.7806	12.6924
C	15.0536	10.7788	11.5036
H	16.7959	10.3135	10.3121
H	15.5183	9.0362	10.3124
H	15.5732	11.5399	12.1240
H	14.5379	11.2944	10.6663
H	14.2926	10.2594	12.1243
O	21.0613	21.0613	14.3166
C	21.9571	21.9573	13.7655
C	22.6905	22.6906	14.8870
H	22.6964	21.4103	13.1394
H	21.4099	22.6966	13.1396
C	23.6944	23.6948	14.3284
H	21.9521	23.2295	15.5199
H	23.2297	21.9522	15.5196
H	23.1748	24.4559	13.7080
H	24.2101	24.2104	15.1657
H	24.4554	23.1754	13.7077
O	8.1453	8.1453	14.3166
C	9.0411	9.0413	13.7655
C	9.7745	9.7746	14.8870
H	9.7804	8.4943	13.1394
H	8.4939	9.7806	13.1396
C	10.7784	10.7788	14.3284
H	9.0361	10.3135	15.5199
H	10.3137	9.0362	15.5196
H	10.2588	11.5399	13.7080
H	11.2941	11.2944	15.1657
H	11.5394	10.2594	13.7077
O	4.7707	11.5154	21.0613
C	3.8749	12.0665	21.9573
C	3.1415	10.9450	22.6906
H	3.1356	12.6926	21.4103
H	4.4221	12.6924	22.6966
C	2.1376	11.5036	23.6948
H	3.8799	10.3121	23.2295
H	2.6023	10.3124	21.9522
H	2.6572	12.1240	24.4559
H	1.6219	10.6663	24.2104
H	1.3766	12.1243	23.1754
O	17.6867	11.5154	8.1453
C	16.7907	12.0665	9.0411
C	16.0574	10.9450	9.7745
H	17.3377	12.6926	9.7804
H	16.0514	12.6924	8.4939
C	15.0532	11.5036	10.7784
H	15.5185	10.3121	9.0361
H	16.7958	10.3124	10.3137
H	14.2921	12.1240	10.2588
H	14.5376	10.6663	11.2941
H	15.5726	12.1243	11.5394
O	4.7707	14.3166	4.7707
C	3.8749	13.7655	3.8747
C	3.1415	14.8870	3.1414
H	3.1356	13.1394	4.4217
H	4.4221	13.1396	3.1354
C	2.1376	14.3284	2.1372
H	3.8799	15.5199	2.6025
H	2.6023	15.5196	3.8798
H	2.6572	13.7080	1.3761
H	1.6219	15.1657	1.6216
H	1.3766	13.7077	2.6566
O	17.6867	14.3166	17.6867
C	16.7909	13.7655	16.7907
C	16.0575	14.8870	16.0574
H	16.0516	13.1394	17.3377
H	17.3381	13.1396	16.0514
C	15.0536	14.3284	15.0532
H	16.7959	15.5199	15.5185
H	15.5183	15.5196	16.7958
H	15.5732	13.7080	14.2921
H	14.5379	15.1657	14.5376
H	14.2926	13.7077	15.5726
O	11.5154	4.7707	21.0613
C	12.0665	3.8747	21.9571
C	10.9450	3.1414	22.6905
H	12.6926	4.4217	22.6964
H	12.6924	3.1354	21.4099
C	11.5036	2.1372	23.6944
H	10.3121	2.6025	21.9521
H	10.3124	3.8798	23.2297
H	12.1240	1.3761	23.1748
H	10.6663	1.6216	24.2101
H	12.1243	2.6566	24.4554
O	11.5154	21.0613	4.7707
C	12.0665	21.9571	3.8747
C	10.9450	22.6905	3.1414
H	12.6926	22.6964	4.4217
H	12.6924	21.4099	3.1354
C	11.5036	23.6944	2.1372
H	10.3121	21.9521	2.6025
H	10.3124	23.2297	3.8798
H	12.1240	23.1748	1.3761
H	10.6663	24.2101	1.6216
H	12.1243	24.4554	2.6566
O	14.3166	21.0613	21.0613
C	13.7655	21.9571	21.9573
C	14.8870	22.6905	22.6906
H	13.1394	22.6964	21.4103
H	13.1396	21.4099	22.6966
C	14.3284	23.6944	23.6948
H	15.5199	21.9521	23.2295
H	15.5196	23.2297	21.9522
H	13.7080	23.1748	24.4559
H	15.1657	24.2101	24.2104
H	13.7077	24.4554	23.1754
O	14.3166	8.1453	8.1453
C	13.7655	9.0411	9.0413
C	14.8870	9.7745	9.7746
H	13.1394	9.7804	8.4943
H	13.1396	8.4939	9.7806
C	14.3284	10.7784	10.7788
H	15.5199	9.0361	10.3135
H	15.5196	10.3137	9.0362
H	13.7080	10.2588	11.5399
H	15.1657	11.2941	11.2944
H	13.7077	11.5394	10.2594
