640

Zn	7.5786	5.3374	5.3374
Zn	18.2534	20.4946	5.3374
Zn	18.2534	5.3374	20.4946
Zn	7.5786	20.4946	20.4946
Zn	5.3374	7.5786	5.3374
Zn	5.3374	18.2534	20.4946
Zn	20.4946	18.2534	5.3374
Zn	20.4946	7.5786	20.4946
Zn	5.3374	5.3374	7.5786
Zn	20.4946	5.3374	18.2534
Zn	5.3374	20.4946	18.2534
Zn	20.4946	20.4946	7.5786
Zn	5.3374	7.5786	20.4946
Zn	20.4946	18.2534	20.4946
Zn	5.3374	18.2534	5.3374
Zn	20.4946	7.5786	5.3374
Zn	7.5786	5.3374	20.4946
Zn	18.2534	5.3374	5.3374
Zn	18.2534	20.4946	20.4946
Zn	7.5786	20.4946	5.3374
Zn	5.3374	5.3374	18.2534
Zn	5.3374	20.4946	7.5786
Zn	20.4946	5.3374	7.5786
Zn	20.4946	20.4946	18.2534
Zn	7.5786	18.2534	18.2534
Zn	18.2534	7.5786	18.2534
Zn	18.2534	18.2534	7.5786
Zn	7.5786	7.5786	7.5786
Zn	7.5786	18.2534	7.5786
Zn	18.2534	18.2534	18.2534
Zn	18.2534	7.5786	7.5786
Zn	7.5786	7.5786	18.2534
O	6.4580	6.4580	6.4580
O	19.3740	19.3740	6.4580
O	19.3740	6.4580	19.3740
O	6.4580	19.3740	19.3740
O	6.4580	6.4580	19.3740
O	19.3740	19.3740	19.3740
O	6.4580	19.3740	6.4580
O	19.3740	6.4580	6.4580
O	7.2813	5.6347	3.4615
O	18.5507	20.1973	3.4615
O	18.5507	5.6347	22.3705
O	7.2813	20.1973	22.3705
O	3.4615	7.2813	5.6347
O	3.4615	18.5507	20.1973
O	22.3705	18.5507	5.6347
O	22.3705	7.2813	20.1973
O	5.6347	3.4615	7.2813
O	20.1973	3.4615	18.5507
O	5.6347	22.3705	18.5507
O	20.1973	22.3705	7.2813
O	5.6347	7.2813	22.3705
O	20.1973	18.5507	22.3705
O	5.6347	18.5507	3.4615
O	20.1973	7.2813	3.4615
O	7.2813	3.4615	20.1973
O	18.5507	3.4615	5.6347
O	18.5507	22.3705	20.1973
O	7.2813	22.3705	5.6347
O	3.4615	5.6347	18.5507
O	3.4615	20.1973	7.2813
O	22.3705	5.6347	7.2813
O	22.3705	20.1973	18.5507
O	7.2813	18.5507	16.3775
O	18.5507	7.2813	16.3775
O	18.5507	18.5507	9.4545
O	7.2813	7.2813	9.4545
O	3.4615	20.1973	18.5507
O	3.4615	5.6347	7.2813
O	22.3705	5.6347	18.5507
O	22.3705	20.1973	7.2813
O	5.6347	16.3775	20.1973
O	20.1973	16.3775	5.6347
O	5.6347	9.4545	5.6347
O	20.1973	9.4545	20.1973
O	5.6347	20.1973	9.4545
O	20.1973	5.6347	9.4545
O	5.6347	5.6347	16.3775
O	20.1973	20.1973	16.3775
O	7.2813	16.3775	7.2813
O	18.5507	16.3775	18.5507
O	18.5507	9.4545	7.2813
O	7.2813	9.4545	18.5507
O	3.4615	18.5507	5.6347
O	3.4615	7.2813	20.1973
O	22.3705	18.5507	20.1973
O	22.3705	7.2813	5.6347
O	20.1973	5.6347	16.3775
O	5.6347	20.1973	16.3775
O	5.6347	5.6347	9.4545
O	20.1973	20.1973	9.4545
O	16.3775	7.2813	18.5507
O	16.3775	18.5507	7.2813
O	9.4545	18.5507	18.5507
O	9.4545	7.2813	7.2813
O	18.5507	3.4615	20.1973
O	7.2813	3.4615	5.6347
O	18.5507	22.3705	5.6347
O	7.2813	22.3705	20.1973
O	18.5507	7.2813	9.4545
O	7.2813	18.5507	9.4545
O	18.5507	18.5507	16.3775
O	7.2813	7.2813	16.3775
O	20.1973	3.4615	7.2813
O	5.6347	3.4615	18.5507
O	5.6347	22.3705	7.2813
O	20.1973	22.3705	18.5507
O	16.3775	5.6347	5.6347
O	16.3775	20.1973	20.1973
O	9.4545	5.6347	20.1973
O	9.4545	20.1973	5.6347
O	20.1973	18.5507	3.4615
O	5.6347	7.2813	3.4615
O	5.6347	18.5507	22.3705
O	20.1973	7.2813	22.3705
O	16.3775	20.1973	5.6347
O	16.3775	5.6347	20.1973
O	9.4545	5.6347	5.6347
O	9.4545	20.1973	20.1973
O	18.5507	16.3775	7.2813
O	7.2813	16.3775	18.5507
O	18.5507	9.4545	18.5507
O	7.2813	9.4545	7.2813
O	18.5507	20.1973	22.3705
O	7.2813	5.6347	22.3705
O	18.5507	5.6347	3.4615
O	7.2813	20.1973	3.4615
O	20.1973	16.3775	20.1973
O	5.6347	16.3775	5.6347
O	5.6347	9.4545	20.1973
O	20.1973	9.4545	5.6347
O	16.3775	18.5507	18.5507
O	16.3775	7.2813	7.2813
O	9.4545	18.5507	7.2813
O	9.4545	7.2813	18.5507
C	6.4580	6.4580	2.8751
C	19.3740	19.3740	2.8751
C	19.3740	6.4580	22.9569
C	6.4580	19.3740	22.9569
C	2.8751	6.4580	6.4580
C	2.8751	19.3740	19.3740
C	22.9569	19.3740	6.4580
C	22.9569	6.4580	19.3740
C	6.4580	2.8751	6.4580
C	19.3740	2.8751	19.3740
C	6.4580	22.9569	19.3740
C	19.3740	22.9569	6.4580
C	6.4580	6.4580	22.9569
C	19.3740	19.3740	22.9569
C	6.4580	19.3740	2.8751
C	19.3740	6.4580	2.8751
C	6.4580	2.8751	19.3740
C	19.3740	2.8751	6.4580
C	19.3740	22.9569	19.3740
C	6.4580	22.9569	6.4580
C	2.8751	6.4580	19.3740
C	2.8751	19.3740	6.4580
C	22.9569	6.4580	6.4580
C	22.9569	19.3740	19.3740
C	6.4580	19.3740	15.7911
C	19.3740	6.4580	15.7911
C	19.3740	19.3740	10.0409
C	6.4580	6.4580	10.0409
C	6.4580	15.7911	19.3740
C	19.3740	15.7911	6.4580
C	6.4580	10.0409	6.4580
C	19.3740	10.0409	19.3740
C	6.4580	19.3740	10.0409
C	19.3740	6.4580	10.0409
C	6.4580	6.4580	15.7911
C	19.3740	19.3740	15.7911
C	6.4580	15.7911	6.4580
C	19.3740	15.7911	19.3740
C	19.3740	10.0409	6.4580
C	6.4580	10.0409	19.3740
C	15.7911	6.4580	19.3740
C	15.7911	19.3740	6.4580
C	10.0409	19.3740	19.3740
C	10.0409	6.4580	6.4580
C	15.7911	6.4580	6.4580
C	15.7911	19.3740	19.3740
C	10.0409	6.4580	19.3740
C	10.0409	19.3740	6.4580
C	6.4580	6.4580	1.3898
C	19.3740	19.3740	1.3898
C	19.3740	6.4580	24.4422
C	6.4580	19.3740	24.4422
C	1.3898	6.4580	6.4580
C	1.3898	19.3740	19.3740
C	24.4422	19.3740	6.4580
C	24.4422	6.4580	19.3740
C	6.4580	1.3898	6.4580
C	19.3740	1.3898	19.3740
C	6.4580	24.4422	19.3740
C	19.3740	24.4422	6.4580
C	6.4580	6.4580	24.4422
C	19.3740	19.3740	24.4422
C	6.4580	19.3740	1.3898
C	19.3740	6.4580	1.3898
C	6.4580	1.3898	19.3740
C	19.3740	1.3898	6.4580
C	19.3740	24.4422	19.3740
C	6.4580	24.4422	6.4580
C	1.3898	6.4580	19.3740
C	1.3898	19.3740	6.4580
C	24.4422	6.4580	6.4580
C	24.4422	19.3740	19.3740
C	6.4580	19.3740	14.3058
C	19.3740	6.4580	14.3058
C	19.3740	19.3740	11.5262
C	6.4580	6.4580	11.5262
C	6.4580	14.3058	19.3740
C	19.3740	14.3058	6.4580
C	6.4580	11.5262	6.4580
C	19.3740	11.5262	19.3740
C	6.4580	19.3740	11.5262
C	19.3740	6.4580	11.5262
C	6.4580	6.4580	14.3058
C	19.3740	19.3740	14.3058
C	6.4580	14.3058	6.4580
C	19.3740	14.3058	19.3740
C	19.3740	11.5262	6.4580
C	6.4580	11.5262	19.3740
C	14.3058	6.4580	19.3740
C	14.3058	19.3740	6.4580
C	11.5262	19.3740	19.3740
C	11.5262	6.4580	6.4580
C	14.3058	6.4580	6.4580
C	14.3058	19.3740	19.3740
C	11.5262	6.4580	19.3740
C	11.5262	19.3740	6.4580
C	7.3079	5.6081	0.6949
C	18.5241	20.2239	0.6949
C	18.5241	5.6081	25.1371
C	7.3079	20.2239	25.1371
C	0.6949	7.3079	5.6081
C	0.6949	18.5241	20.2239
C	25.1371	18.5241	5.6081
C	25.1371	7.3079	20.2239
C	5.6081	0.6949	7.3079
C	20.2239	0.6949	18.5241
C	5.6081	25.1371	18.5241
C	20.2239	25.1371	7.3079
C	5.6081	7.3079	25.1371
C	20.2239	18.5241	25.1371
C	5.6081	18.5241	0.6949
C	20.2239	7.3079	0.6949
C	7.3079	0.6949	20.2239
C	18.5241	0.6949	5.6081
C	18.5241	25.1371	20.2239
C	7.3079	25.1371	5.6081
C	0.6949	5.6081	18.5241
C	0.6949	20.2239	7.3079
C	25.1371	5.6081	7.3079
C	25.1371	20.2239	18.5241
C	7.3079	18.5241	13.6109
C	18.5241	7.3079	13.6109
C	18.5241	18.5241	12.2211
C	7.3079	7.3079	12.2211
C	0.6949	20.2239	18.5241
C	0.6949	5.6081	7.3079
C	25.1371	5.6081	18.5241
C	25.1371	20.2239	7.3079
C	5.6081	13.6109	20.2239
C	20.2239	13.6109	5.6081
C	5.6081	12.2211	5.6081
C	20.2239	12.2211	20.2239
C	5.6081	20.2239	12.2211
C	20.2239	5.6081	12.2211
C	5.6081	5.6081	13.6109
C	20.2239	20.2239	13.6109
C	7.3079	13.6109	7.3079
C	18.5241	13.6109	18.5241
C	18.5241	12.2211	7.3079
C	7.3079	12.2211	18.5241
C	0.6949	18.5241	5.6081
C	0.6949	7.3079	20.2239
C	25.1371	18.5241	20.2239
C	25.1371	7.3079	5.6081
C	20.2239	5.6081	13.6109
C	5.6081	20.2239	13.6109
C	5.6081	5.6081	12.2211
C	20.2239	20.2239	12.2211
C	13.6109	7.3079	18.5241
C	13.6109	18.5241	7.3079
C	12.2211	18.5241	18.5241
C	12.2211	7.3079	7.3079
C	18.5241	0.6949	20.2239
C	7.3079	0.6949	5.6081
C	18.5241	25.1371	5.6081
C	7.3079	25.1371	20.2239
C	18.5241	7.3079	12.2211
C	7.3079	18.5241	12.2211
C	18.5241	18.5241	13.6109
C	7.3079	7.3079	13.6109
C	20.2239	0.6949	7.3079
C	5.6081	0.6949	18.5241
C	5.6081	25.1371	7.3079
C	20.2239	25.1371	18.5241
C	13.6109	5.6081	5.6081
C	13.6109	20.2239	20.2239
C	12.2211	5.6081	20.2239
C	12.2211	20.2239	5.6081
C	20.2239	18.5241	0.6949
C	5.6081	7.3079	0.6949
C	5.6081	18.5241	25.1371
C	20.2239	7.3079	25.1371
C	13.6109	20.2239	5.6081
C	13.6109	5.6081	20.2239
C	12.2211	5.6081	5.6081
C	12.2211	20.2239	20.2239
C	18.5241	13.6109	7.3079
C	7.3079	13.6109	18.5241
C	18.5241	12.2211	18.5241
C	7.3079	12.2211	7.3079
C	18.5241	20.2239	25.1371
C	7.3079	5.6081	25.1371
C	18.5241	5.6081	0.6949
C	7.3079	20.2239	0.6949
C	20.2239	13.6109	20.2239
C	5.6081	13.6109	5.6081
C	5.6081	12.2211	20.2239
C	20.2239	12.2211	5.6081
C	13.6109	18.5241	18.5241
C	13.6109	7.3079	7.3079
C	12.2211	18.5241	7.3079
C	12.2211	7.3079	18.5241
H	17.9558	20.7922	1.1573
H	7.8762	20.7922	24.6747
H	24.6747	17.9558	5.0398
H	20.7922	1.1573	17.9558
H	20.7922	24.6747	7.8762
H	5.0398	7.8762	24.6747
H	20.7922	17.9558	24.6747
H	5.0398	17.9558	1.1573
H	20.7922	7.8762	1.1573
H	7.8762	1.1573	20.7922
H	17.9558	1.1573	5.0398
H	17.9558	24.6747	20.7922
H	7.8762	24.6747	5.0398
H	1.1573	5.0398	17.9558
H	1.1573	20.7922	7.8762
H	24.6747	5.0398	7.8762
H	24.6747	20.7922	17.9558
H	17.9558	17.9558	11.7587
H	7.8762	7.8762	11.7587
H	1.1573	20.7922	17.9558
H	1.1573	5.0398	7.8762
H	24.6747	5.0398	17.9558
H	5.0398	14.0733	20.7922
H	20.7922	14.0733	5.0398
H	5.0398	11.7587	5.0398
H	5.0398	20.7922	11.7587
H	20.7922	5.0398	11.7587
H	5.0398	5.0398	14.0733
H	20.7922	20.7922	14.0733
H	7.8762	14.0733	7.8762
H	17.9558	14.0733	17.9558
H	17.9558	11.7587	7.8762
H	7.8762	11.7587	17.9558
H	1.1573	17.9558	5.0398
H	1.1573	7.8762	20.7922
H	24.6747	17.9558	20.7922
H	24.6747	7.8762	5.0398
H	20.7922	5.0398	14.0733
H	5.0398	20.7922	14.0733
H	14.0733	7.8762	17.9558
H	14.0733	17.9558	7.8762
H	11.7587	17.9558	17.9558
H	11.7587	7.8762	7.8762
H	7.8762	1.1573	5.0398
H	7.8762	24.6747	20.7922
H	17.9558	7.8762	11.7587
H	7.8762	17.9558	11.7587
H	17.9558	17.9558	14.0733
H	7.8762	7.8762	14.0733
H	20.7922	1.1573	7.8762
H	5.0398	1.1573	17.9558
H	5.0398	24.6747	7.8762
H	20.7922	24.6747	17.9558
H	14.0733	5.0398	5.0398
H	14.0733	20.7922	20.7922
H	11.7587	5.0398	20.7922
H	11.7587	20.7922	5.0398
H	5.0398	7.8762	1.1573
H	20.7922	7.8762	24.6747
H	17.9558	11.7587	17.9558
H	17.9558	20.7922	24.6747
H	7.8762	5.0398	24.6747
H	17.9558	5.0398	1.1573
H	7.8762	20.7922	1.1573
H	20.7922	14.0733	20.7922
H	5.0398	14.0733	5.0398
H	5.0398	11.7587	20.7922
H	20.7922	11.7587	5.0398
H	14.0733	17.9558	17.9558
H	14.0733	7.8762	7.8762
H	11.7587	17.9558	7.8762
H	11.7587	7.8762	17.9558
C	8.2538	4.6622	1.4823
C	8.1817	4.7343	3.0173
H	9.2990	4.9020	1.1888
H	8.0140	3.6170	1.1889
C	9.1606	3.7555	3.6613
H	7.1554	4.4765	3.3583
H	8.4395	5.7607	3.3582
H	8.9219	2.7138	3.3580
H	9.0873	3.8289	4.7669
H	10.2022	3.9942	3.3579
C	21.1698	17.5782	1.4823
C	21.0977	17.6503	3.0173
H	20.9300	16.5330	1.1888
H	22.2150	17.8180	1.1889
C	22.0765	16.6714	3.6613
H	21.3555	18.6766	3.3583
H	20.0713	17.3925	3.3582
H	23.1182	16.9101	3.3580
H	22.0031	16.7447	4.7669
H	21.8378	15.6298	3.3579
C	17.5782	4.6622	24.3497
C	17.6503	4.7343	22.8147
H	17.8180	3.6170	24.6432
H	16.5330	4.9020	24.6431
C	16.6715	3.7554	22.1707
H	17.3925	5.7606	22.4737
H	18.6767	4.4765	22.4738
H	15.6298	3.9941	22.4740
H	16.7449	3.8287	21.0651
H	16.9102	2.7138	22.4741
C	4.6622	17.5782	24.3497
C	4.7343	17.6503	22.8147
H	3.6170	17.8180	24.6432
H	4.9020	16.5330	24.6431
C	3.7554	16.6715	22.1707
H	5.7606	17.3925	22.4737
H	4.4765	18.6767	22.4738
H	3.9941	15.6298	22.4740
H	3.8287	16.7449	21.0651
H	2.7138	16.9102	22.4741
C	1.4823	8.2538	4.6622
C	3.0173	8.1817	4.7343
H	1.1888	9.2990	4.9020
H	1.1889	8.0140	3.6170
C	3.6613	9.1606	3.7555
H	3.3583	7.1554	4.4765
H	3.3582	8.4395	5.7607
H	3.3580	8.9219	2.7138
H	4.7669	9.0873	3.8289
H	3.3579	10.2022	3.9942
C	1.4823	17.5782	21.1698
C	3.0173	17.6503	21.0977
H	1.1888	17.8180	22.2150
H	1.1889	16.5330	20.9300
C	3.6613	16.6715	22.0766
H	3.3583	17.3925	20.0714
H	3.3582	18.6767	21.3555
H	3.3580	15.6298	21.8379
H	4.7669	16.7449	22.0033
H	3.3579	16.9102	23.1182
C	24.3497	21.1698	8.2538
C	22.8147	21.0977	8.1817
H	24.6432	20.9300	9.2990
H	24.6431	22.2150	8.0140
C	22.1707	22.0765	9.1606
H	22.4737	21.3555	7.1554
H	22.4738	20.0713	8.4395
H	22.4740	23.1182	8.9219
H	21.0651	22.0031	9.0873
H	22.4741	21.8378	10.2022
C	24.3497	8.2538	21.1698
C	22.8147	8.1817	21.0977
H	24.6432	9.2990	20.9300
H	24.6431	8.0140	22.2150
C	22.1707	9.1606	22.0765
H	22.4737	7.1554	21.3555
H	22.4738	8.4395	20.0713
H	22.4740	8.9219	23.1182
H	21.0651	9.0873	22.0031
H	22.4741	10.2022	21.8378
C	4.6622	1.4823	8.2538
C	4.7343	3.0173	8.1817
H	4.9020	1.1888	9.2990
H	3.6170	1.1889	8.0140
C	3.7555	3.6613	9.1606
H	4.4765	3.3583	7.1554
H	5.7607	3.3582	8.4395
H	2.7138	3.3580	8.9219
H	3.8289	4.7669	9.0873
H	3.9942	3.3579	10.2022
C	17.5782	1.4823	21.1698
C	17.6503	3.0173	21.0977
H	16.5330	1.1888	20.9300
H	17.8180	1.1889	22.2150
C	16.6714	3.6613	22.0765
H	18.6766	3.3583	21.3555
H	17.3925	3.3582	20.0713
H	16.9101	3.3580	23.1182
H	16.7447	4.7669	22.0031
H	15.6298	3.3579	21.8378
C	4.6622	24.3497	17.5782
C	4.7343	22.8147	17.6503
H	3.6170	24.6432	17.8180
H	4.9020	24.6431	16.5330
C	3.7554	22.1707	16.6715
H	5.7606	22.4737	17.3925
H	4.4765	22.4738	18.6767
H	3.9941	22.4740	15.6298
H	3.8287	21.0651	16.7449
H	2.7138	22.4741	16.9102
C	17.5782	24.3497	4.6622
C	17.6503	22.8147	4.7343
H	16.5330	24.6432	4.9020
H	17.8180	24.6431	3.6170
C	16.6714	22.1707	3.7555
H	18.6766	22.4737	4.4765
H	17.3925	22.4738	5.7607
H	16.9101	22.4740	2.7138
H	16.7447	21.0651	3.8289
H	15.6298	22.4741	3.9942
C	8.2538	17.5782	14.3983
C	8.1817	17.6503	15.9333
H	8.0140	16.5330	14.1048
H	9.2990	17.8180	14.1049
C	9.1605	16.6714	16.5773
H	8.4395	18.6766	16.2743
H	7.1553	17.3925	16.2742
H	10.2022	16.9101	16.2740
H	9.0871	16.7447	17.6829
H	8.9218	15.6298	16.2739
C	17.5782	8.2538	14.3983
C	17.6503	8.1817	15.9333
H	17.8180	9.2990	14.1048
H	16.5330	8.0140	14.1049
C	16.6715	9.1606	16.5773
H	17.3925	7.1554	16.2743
H	18.6767	8.4395	16.2742
H	15.6298	8.9219	16.2740
H	16.7449	9.0873	17.6829
H	16.9102	10.2022	16.2739
C	21.1698	21.1698	11.4337
C	21.0977	21.0977	9.8987
H	20.9300	22.2150	11.7272
H	22.2150	20.9300	11.7271
C	22.0765	22.0766	9.2547
H	21.3555	20.0714	9.5577
H	20.0713	21.3555	9.5578
H	23.1182	21.8379	9.5580
H	22.0031	22.0033	8.1491
H	21.8378	23.1182	9.5581
C	4.6622	4.6622	11.4337
C	4.7343	4.7343	9.8987
H	4.9020	3.6170	11.7272
H	3.6170	4.9020	11.7271
C	3.7555	3.7554	9.2547
H	4.4765	5.7606	9.5577
H	5.7607	4.4765	9.5578
H	2.7138	3.9941	9.5580
H	3.8289	3.8287	8.1491
H	3.9942	2.7138	9.5581
C	8.2538	14.3983	17.5782
C	8.1817	15.9333	17.6503
H	9.2990	14.1048	17.8180
H	8.0140	14.1049	16.5330
C	9.1606	16.5773	16.6715
H	7.1554	16.2743	17.3925
H	8.4395	16.2742	18.6767
H	8.9219	16.2740	15.6298
H	9.0873	17.6829	16.7449
H	10.2022	16.2739	16.9102
C	17.5782	14.3983	8.2538
C	17.6503	15.9333	8.1817
H	16.5330	14.1048	8.0140
H	17.8180	14.1049	9.2990
C	16.6714	16.5773	9.1605
H	18.6766	16.2743	8.4395
H	17.3925	16.2742	7.1553
H	16.9101	16.2740	10.2022
H	16.7447	17.6829	9.0871
H	15.6298	16.2739	8.9218
C	8.2538	11.4337	8.2538
C	8.1817	9.8987	8.1817
H	9.2990	11.7272	8.0140
H	8.0140	11.7271	9.2990
C	9.1606	9.2547	9.1605
H	7.1554	9.5577	8.4395
H	8.4395	9.5578	7.1553
H	8.9219	9.5580	10.2022
H	9.0873	8.1491	9.0871
H	10.2022	9.5581	8.9218
C	21.1698	11.4337	21.1698
C	21.0977	9.8987	21.0977
H	22.2150	11.7272	20.9300
H	20.9300	11.7271	22.2150
C	22.0766	9.2547	22.0765
H	20.0714	9.5577	21.3555
H	21.3555	9.5578	20.0713
H	21.8379	9.5580	23.1182
H	22.0033	8.1491	22.0031
H	23.1182	9.5581	21.8378
C	14.3983	4.6622	21.1698
C	15.9333	4.7343	21.0977
H	14.1048	3.6170	20.9300
H	14.1049	4.9020	22.2150
C	16.5773	3.7554	22.0765
H	16.2743	5.7606	21.3555
H	16.2742	4.4765	20.0713
H	16.2740	3.9941	23.1182
H	17.6829	3.8287	22.0031
H	16.2739	2.7138	21.8378
C	14.3983	21.1698	4.6622
C	15.9333	21.0977	4.7343
H	14.1048	20.9300	3.6170
H	14.1049	22.2150	4.9020
C	16.5773	22.0765	3.7554
H	16.2743	21.3555	5.7606
H	16.2742	20.0713	4.4765
H	16.2740	23.1182	3.9941
H	17.6829	22.0031	3.8287
H	16.2739	21.8378	2.7138
C	11.4337	21.1698	21.1698
C	9.8987	21.0977	21.0977
H	11.7272	20.9300	22.2150
H	11.7271	22.2150	20.9300
C	9.2547	22.0765	22.0766
H	9.5577	21.3555	20.0714
H	9.5578	20.0713	21.3555
H	9.5580	23.1182	21.8379
H	8.1491	22.0031	22.0033
H	9.5581	21.8378	23.1182
C	11.4337	4.6622	4.6622
C	9.8987	4.7343	4.7343
H	11.7272	4.9020	3.6170
H	11.7271	3.6170	4.9020
C	9.2547	3.7555	3.7554
H	9.5577	4.4765	5.7606
H	9.5578	5.7607	4.4765
H	9.5580	2.7138	3.9941
H	8.1491	3.8289	3.8287
H	9.5581	3.9942	2.7138
