520

Zn	7.5786	5.3374	5.3374
Zn	18.2534	20.4946	5.3374
Zn	18.2534	5.3374	20.4946
Zn	7.5786	20.4946	20.4946
Zn	5.3374	7.5786	5.3374
Zn	5.3374	18.2534	20.4946
Zn	20.4946	18.2534	5.3374
Zn	20.4946	7.5786	20.4946
Zn	5.3374	5.3374	7.5786
Zn	20.4946	5.3374	18.2534
Zn	5.3374	20.4946	18.2534
Zn	20.4946	20.4946	7.5786
Zn	5.3374	7.5786	20.4946
Zn	20.4946	18.2534	20.4946
Zn	5.3374	18.2534	5.3374
Zn	20.4946	7.5786	5.3374
Zn	7.5786	5.3374	20.4946
Zn	18.2534	5.3374	5.3374
Zn	18.2534	20.4946	20.4946
Zn	7.5786	20.4946	5.3374
Zn	5.3374	5.3374	18.2534
Zn	5.3374	20.4946	7.5786
Zn	20.4946	5.3374	7.5786
Zn	20.4946	20.4946	18.2534
Zn	7.5786	18.2534	18.2534
Zn	18.2534	7.5786	18.2534
Zn	18.2534	18.2534	7.5786
Zn	7.5786	7.5786	7.5786
Zn	7.5786	18.2534	7.5786
Zn	18.2534	18.2534	18.2534
Zn	18.2534	7.5786	7.5786
Zn	7.5786	7.5786	18.2534
O	6.4580	6.4580	6.4580
O	19.3740	19.3740	6.4580
O	19.3740	6.4580	19.3740
O	6.4580	19.3740	19.3740
O	6.4580	6.4580	19.3740
O	19.3740	19.3740	19.3740
O	6.4580	19.3740	6.4580
O	19.3740	6.4580	6.4580
O	7.2813	5.6347	3.4615
O	18.5507	20.1973	3.4615
O	18.5507	5.6347	22.3705
O	7.2813	20.1973	22.3705
O	3.4615	7.2813	5.6347
O	3.4615	18.5507	20.1973
O	22.3705	18.5507	5.6347
O	22.3705	7.2813	20.1973
O	5.6347	3.4615	7.2813
O	20.1973	3.4615	18.5507
O	5.6347	22.3705	18.5507
O	20.1973	22.3705	7.2813
O	5.6347	7.2813	22.3705
O	20.1973	18.5507	22.3705
O	5.6347	18.5507	3.4615
O	20.1973	7.2813	3.4615
O	7.2813	3.4615	20.1973
O	18.5507	3.4615	5.6347
O	18.5507	22.3705	20.1973
O	7.2813	22.3705	5.6347
O	3.4615	5.6347	18.5507
O	3.4615	20.1973	7.2813
O	22.3705	5.6347	7.2813
O	22.3705	20.1973	18.5507
O	7.2813	18.5507	16.3775
O	18.5507	7.2813	16.3775
O	18.5507	18.5507	9.4545
O	7.2813	7.2813	9.4545
O	3.4615	20.1973	18.5507
O	3.4615	5.6347	7.2813
O	22.3705	5.6347	18.5507
O	22.3705	20.1973	7.2813
O	5.6347	16.3775	20.1973
O	20.1973	16.3775	5.6347
O	5.6347	9.4545	5.6347
O	20.1973	9.4545	20.1973
O	5.6347	20.1973	9.4545
O	20.1973	5.6347	9.4545
O	5.6347	5.6347	16.3775
O	20.1973	20.1973	16.3775
O	7.2813	16.3775	7.2813
O	18.5507	16.3775	18.5507
O	18.5507	9.4545	7.2813
O	7.2813	9.4545	18.5507
O	3.4615	18.5507	5.6347
O	3.4615	7.2813	20.1973
O	22.3705	18.5507	20.1973
O	22.3705	7.2813	5.6347
O	20.1973	5.6347	16.3775
O	5.6347	20.1973	16.3775
O	5.6347	5.6347	9.4545
O	20.1973	20.1973	9.4545
O	16.3775	7.2813	18.5507
O	16.3775	18.5507	7.2813
O	9.4545	18.5507	18.5507
O	9.4545	7.2813	7.2813
O	18.5507	3.4615	20.1973
O	7.2813	3.4615	5.6347
O	18.5507	22.3705	5.6347
O	7.2813	22.3705	20.1973
O	18.5507	7.2813	9.4545
O	7.2813	18.5507	9.4545
O	18.5507	18.5507	16.3775
O	7.2813	7.2813	16.3775
O	20.1973	3.4615	7.2813
O	5.6347	3.4615	18.5507
O	5.6347	22.3705	7.2813
O	20.1973	22.3705	18.5507
O	16.3775	5.6347	5.6347
O	16.3775	20.1973	20.1973
O	9.4545	5.6347	20.1973
O	9.4545	20.1973	5.6347
O	20.1973	18.5507	3.4615
O	5.6347	7.2813	3.4615
O	5.6347	18.5507	22.3705
O	20.1973	7.2813	22.3705
O	16.3775	20.1973	5.6347
O	16.3775	5.6347	20.1973
O	9.4545	5.6347	5.6347
O	9.4545	20.1973	20.1973
O	18.5507	16.3775	7.2813
O	7.2813	16.3775	18.5507
O	18.5507	9.4545	18.5507
O	7.2813	9.4545	7.2813
O	18.5507	20.1973	22.3705
O	7.2813	5.6347	22.3705
O	18.5507	5.6347	3.4615
O	7.2813	20.1973	3.4615
O	20.1973	16.3775	20.1973
O	5.6347	16.3775	5.6347
O	5.6347	9.4545	20.1973
O	20.1973	9.4545	5.6347
O	16.3775	18.5507	18.5507
O	16.3775	7.2813	7.2813
O	9.4545	18.5507	7.2813
O	9.4545	7.2813	18.5507
C	6.4580	6.4580	2.8751
C	19.3740	19.3740	2.8751
C	19.3740	6.4580	22.9569
C	6.4580	19.3740	22.9569
C	2.8751	6.4580	6.4580
C	2.8751	19.3740	19.3740
C	22.9569	19.3740	6.4580
C	22.9569	6.4580	19.3740
C	6.4580	2.8751	6.4580
C	19.3740	2.8751	19.3740
C	6.4580	22.9569	19.3740
C	19.3740	22.9569	6.4580
C	6.4580	6.4580	22.9569
C	19.3740	19.3740	22.9569
C	6.4580	19.3740	2.8751
C	19.3740	6.4580	2.8751
C	6.4580	2.8751	19.3740
C	19.3740	2.8751	6.4580
C	19.3740	22.9569	19.3740
C	6.4580	22.9569	6.4580
C	2.8751	6.4580	19.3740
C	2.8751	19.3740	6.4580
C	22.9569	6.4580	6.4580
C	22.9569	19.3740	19.3740
C	6.4580	19.3740	15.7911
C	19.3740	6.4580	15.7911
C	19.3740	19.3740	10.0409
C	6.4580	6.4580	10.0409
C	6.4580	15.7911	19.3740
C	19.3740	15.7911	6.4580
C	6.4580	10.0409	6.4580
C	19.3740	10.0409	19.3740
C	6.4580	19.3740	10.0409
C	19.3740	6.4580	10.0409
C	6.4580	6.4580	15.7911
C	19.3740	19.3740	15.7911
C	6.4580	15.7911	6.4580
C	19.3740	15.7911	19.3740
C	19.3740	10.0409	6.4580
C	6.4580	10.0409	19.3740
C	15.7911	6.4580	19.3740
C	15.7911	19.3740	6.4580
C	10.0409	19.3740	19.3740
C	10.0409	6.4580	6.4580
C	15.7911	6.4580	6.4580
C	15.7911	19.3740	19.3740
C	10.0409	6.4580	19.3740
C	10.0409	19.3740	6.4580
C	6.4580	6.4580	1.3898
C	19.3740	19.3740	1.3898
C	19.3740	6.4580	24.4422
C	6.4580	19.3740	24.4422
C	1.3898	6.4580	6.4580
C	1.3898	19.3740	19.3740
C	24.4422	19.3740	6.4580
C	24.4422	6.4580	19.3740
C	6.4580	1.3898	6.4580
C	19.3740	1.3898	19.3740
C	6.4580	24.4422	19.3740
C	19.3740	24.4422	6.4580
C	6.4580	6.4580	24.4422
C	19.3740	19.3740	24.4422
C	6.4580	19.3740	1.3898
C	19.3740	6.4580	1.3898
C	6.4580	1.3898	19.3740
C	19.3740	1.3898	6.4580
C	19.3740	24.4422	19.3740
C	6.4580	24.4422	6.4580
C	1.3898	6.4580	19.3740
C	1.3898	19.3740	6.4580
C	24.4422	6.4580	6.4580
C	24.4422	19.3740	19.3740
C	6.4580	19.3740	14.3058
C	19.3740	6.4580	14.3058
C	19.3740	19.3740	11.5262
C	6.4580	6.4580	11.5262
C	6.4580	14.3058	19.3740
C	19.3740	14.3058	6.4580
C	6.4580	11.5262	6.4580
C	19.3740	11.5262	19.3740
C	6.4580	19.3740	11.5262
C	19.3740	6.4580	11.5262
C	6.4580	6.4580	14.3058
C	19.3740	19.3740	14.3058
C	6.4580	14.3058	6.4580
C	19.3740	14.3058	19.3740
C	19.3740	11.5262	6.4580
C	6.4580	11.5262	19.3740
C	14.3058	6.4580	19.3740
C	14.3058	19.3740	6.4580
C	11.5262	19.3740	19.3740
C	11.5262	6.4580	6.4580
C	14.3058	6.4580	6.4580
C	14.3058	19.3740	19.3740
C	11.5262	6.4580	19.3740
C	11.5262	19.3740	6.4580
C	7.3079	5.6081	0.6949
C	18.5241	20.2239	0.6949
C	18.5241	5.6081	25.1371
C	7.3079	20.2239	25.1371
C	0.6949	7.3079	5.6081
C	0.6949	18.5241	20.2239
C	25.1371	18.5241	5.6081
C	25.1371	7.3079	20.2239
C	5.6081	0.6949	7.3079
C	20.2239	0.6949	18.5241
C	5.6081	25.1371	18.5241
C	20.2239	25.1371	7.3079
C	5.6081	7.3079	25.1371
C	20.2239	18.5241	25.1371
C	5.6081	18.5241	0.6949
C	20.2239	7.3079	0.6949
C	7.3079	0.6949	20.2239
C	18.5241	0.6949	5.6081
C	18.5241	25.1371	20.2239
C	7.3079	25.1371	5.6081
C	0.6949	5.6081	18.5241
C	0.6949	20.2239	7.3079
C	25.1371	5.6081	7.3079
C	25.1371	20.2239	18.5241
C	7.3079	18.5241	13.6109
C	18.5241	7.3079	13.6109
C	18.5241	18.5241	12.2211
C	7.3079	7.3079	12.2211
C	0.6949	20.2239	18.5241
C	0.6949	5.6081	7.3079
C	25.1371	5.6081	18.5241
C	25.1371	20.2239	7.3079
C	5.6081	13.6109	20.2239
C	20.2239	13.6109	5.6081
C	5.6081	12.2211	5.6081
C	20.2239	12.2211	20.2239
C	5.6081	20.2239	12.2211
C	20.2239	5.6081	12.2211
C	5.6081	5.6081	13.6109
C	20.2239	20.2239	13.6109
C	7.3079	13.6109	7.3079
C	18.5241	13.6109	18.5241
C	18.5241	12.2211	7.3079
C	7.3079	12.2211	18.5241
C	0.6949	18.5241	5.6081
C	0.6949	7.3079	20.2239
C	25.1371	18.5241	20.2239
C	25.1371	7.3079	5.6081
C	20.2239	5.6081	13.6109
C	5.6081	20.2239	13.6109
C	5.6081	5.6081	12.2211
C	20.2239	20.2239	12.2211
C	13.6109	7.3079	18.5241
C	13.6109	18.5241	7.3079
C	12.2211	18.5241	18.5241
C	12.2211	7.3079	7.3079
C	18.5241	0.6949	20.2239
C	7.3079	0.6949	5.6081
C	18.5241	25.1371	5.6081
C	7.3079	25.1371	20.2239
C	18.5241	7.3079	12.2211
C	7.3079	18.5241	12.2211
C	18.5241	18.5241	13.6109
C	7.3079	7.3079	13.6109
C	20.2239	0.6949	7.3079
C	5.6081	0.6949	18.5241
C	5.6081	25.1371	7.3079
C	20.2239	25.1371	18.5241
C	13.6109	5.6081	5.6081
C	13.6109	20.2239	20.2239
C	12.2211	5.6081	20.2239
C	12.2211	20.2239	5.6081
C	20.2239	18.5241	0.6949
C	5.6081	7.3079	0.6949
C	5.6081	18.5241	25.1371
C	20.2239	7.3079	25.1371
C	13.6109	20.2239	5.6081
C	13.6109	5.6081	20.2239
C	12.2211	5.6081	5.6081
C	12.2211	20.2239	20.2239
C	18.5241	13.6109	7.3079
C	7.3079	13.6109	18.5241
C	18.5241	12.2211	18.5241
C	7.3079	12.2211	7.3079
C	18.5241	20.2239	25.1371
C	7.3079	5.6081	25.1371
C	18.5241	5.6081	0.6949
C	7.3079	20.2239	0.6949
C	20.2239	13.6109	20.2239
C	5.6081	13.6109	5.6081
C	5.6081	12.2211	20.2239
C	20.2239	12.2211	5.6081
C	13.6109	18.5241	18.5241
C	13.6109	7.3079	7.3079
C	12.2211	18.5241	7.3079
C	12.2211	7.3079	18.5241
H	1.1573	17.9558	20.7922
H	24.6747	17.9558	5.0398
H	20.7922	24.6747	7.8762
H	5.0398	7.8762	24.6747
H	20.7922	17.9558	24.6747
H	5.0398	17.9558	1.1573
H	20.7922	7.8762	1.1573
H	7.8762	1.1573	20.7922
H	17.9558	1.1573	5.0398
H	17.9558	24.6747	20.7922
H	7.8762	24.6747	5.0398
H	1.1573	5.0398	17.9558
H	1.1573	20.7922	7.8762
H	24.6747	5.0398	7.8762
H	24.6747	20.7922	17.9558
H	7.8762	17.9558	14.0733
H	17.9558	7.8762	14.0733
H	17.9558	17.9558	11.7587
H	1.1573	5.0398	7.8762
H	24.6747	5.0398	17.9558
H	5.0398	14.0733	20.7922
H	20.7922	14.0733	5.0398
H	5.0398	11.7587	5.0398
H	5.0398	20.7922	11.7587
H	20.7922	5.0398	11.7587
H	5.0398	5.0398	14.0733
H	20.7922	20.7922	14.0733
H	7.8762	14.0733	7.8762
H	17.9558	14.0733	17.9558
H	17.9558	11.7587	7.8762
H	7.8762	11.7587	17.9558
H	1.1573	17.9558	5.0398
H	1.1573	7.8762	20.7922
H	24.6747	17.9558	20.7922
H	24.6747	7.8762	5.0398
H	5.0398	5.0398	11.7587
H	14.0733	7.8762	17.9558
H	14.0733	17.9558	7.8762
H	11.7587	17.9558	17.9558
H	11.7587	7.8762	7.8762
H	17.9558	1.1573	20.7922
H	7.8762	1.1573	5.0398
H	7.8762	24.6747	20.7922
H	17.9558	7.8762	11.7587
H	7.8762	17.9558	11.7587
H	17.9558	17.9558	14.0733
H	7.8762	7.8762	14.0733
H	20.7922	1.1573	7.8762
H	5.0398	1.1573	17.9558
H	5.0398	24.6747	7.8762
H	20.7922	24.6747	17.9558
H	14.0733	5.0398	5.0398
H	14.0733	20.7922	20.7922
H	11.7587	5.0398	20.7922
H	11.7587	20.7922	5.0398
H	20.7922	17.9558	1.1573
H	5.0398	7.8762	1.1573
H	5.0398	17.9558	24.6747
H	20.7922	7.8762	24.6747
H	17.9558	11.7587	17.9558
H	17.9558	20.7922	24.6747
H	7.8762	5.0398	24.6747
H	17.9558	5.0398	1.1573
H	7.8762	20.7922	1.1573
H	20.7922	14.0733	20.7922
H	5.0398	14.0733	5.0398
H	5.0398	11.7587	20.7922
H	20.7922	11.7587	5.0398
H	14.0733	17.9558	17.9558
H	14.0733	7.8762	7.8762
H	11.7587	17.9558	7.8762
H	11.7587	7.8762	17.9558
O	8.1595	4.7565	1.3665
C	8.2683	4.6477	2.7382
H	9.0338	3.8822	2.9799
H	7.2995	4.3273	3.1773
H	8.5887	5.6165	3.1773
O	17.6725	21.0755	1.3665
C	17.5637	21.1843	2.7382
H	16.7982	21.9498	2.9799
H	18.5325	21.5047	3.1773
H	17.2433	20.2155	3.1773
O	17.6725	4.7565	24.4655
C	17.5637	4.6477	23.0938
H	16.7982	3.8822	22.8521
H	17.2433	5.6165	22.6547
H	18.5325	4.3273	22.6547
O	8.1595	21.0755	24.4655
C	8.2683	21.1843	23.0938
H	9.0338	21.9498	22.8521
H	7.2995	21.5047	22.6547
H	8.5887	20.2155	22.6547
O	1.3665	8.1595	4.7565
C	2.7382	8.2683	4.6477
H	2.9799	9.0338	3.8822
H	3.1773	8.5887	5.6165
H	3.1773	7.2995	4.3273
O	1.3665	21.0755	17.6725
C	2.7382	21.1843	17.5637
H	2.9799	21.9498	16.7982
H	3.1773	21.5047	18.5325
H	3.1773	20.2155	17.2433
O	24.4655	21.0755	8.1595
C	23.0938	21.1843	8.2683
H	22.8521	21.9498	9.0338
H	22.6547	21.5047	7.2995
H	22.6547	20.2155	8.5887
O	24.4655	8.1595	21.0755
C	23.0938	8.2683	21.1843
H	22.8521	9.0338	21.9498
H	22.6547	7.2995	21.5047
H	22.6547	8.5887	20.2155
O	4.7565	1.3665	8.1595
C	4.6477	2.7382	8.2683
H	3.8822	2.9799	9.0338
H	5.6165	3.1773	8.5887
H	4.3273	3.1773	7.2995
O	21.0755	1.3665	17.6725
C	21.1843	2.7382	17.5637
H	21.9498	2.9799	16.7982
H	21.5047	3.1773	18.5325
H	20.2155	3.1773	17.2433
O	4.7565	24.4655	17.6725
C	4.6477	23.0938	17.5637
H	3.8822	22.8521	16.7982
H	4.3273	22.6547	18.5325
H	5.6165	22.6547	17.2433
O	17.6725	24.4655	4.7565
C	17.5637	23.0938	4.6477
H	16.7982	22.8521	3.8822
H	17.2433	22.6547	5.6165
H	18.5325	22.6547	4.3273
O	4.7565	21.0755	14.2825
C	4.6477	21.1843	15.6542
H	3.8822	21.9498	15.8959
H	5.6165	21.5047	16.0933
H	4.3273	20.2155	16.0933
O	21.0755	4.7565	14.2825
C	21.1843	4.6477	15.6542
H	21.9498	3.8822	15.8959
H	21.5047	5.6165	16.0933
H	20.2155	4.3273	16.0933
O	21.0755	21.0755	11.5495
C	21.1843	21.1843	10.1778
H	21.9498	21.9498	9.9361
H	20.2155	21.5047	9.7387
H	21.5047	20.2155	9.7387
O	8.1595	8.1595	11.5495
C	8.2683	8.2683	10.1778
H	9.0338	9.0338	9.9361
H	7.2995	8.5887	9.7387
H	8.5887	7.2995	9.7387
O	8.1595	14.2825	17.6725
C	8.2683	15.6542	17.5637
H	9.0338	15.8959	16.7982
H	7.2995	16.0933	17.2433
H	8.5887	16.0933	18.5325
O	17.6725	14.2825	8.1595
C	17.5637	15.6542	8.2683
H	16.7982	15.8959	9.0338
H	17.2433	16.0933	7.2995
H	18.5325	16.0933	8.5887
O	8.1595	11.5495	8.1595
C	8.2683	10.1778	8.2683
H	9.0338	9.9361	9.0338
H	7.2995	9.7387	8.5887
H	8.5887	9.7387	7.2995
O	21.0755	11.5495	21.0755
C	21.1843	10.1778	21.1843
H	21.9498	9.9361	21.9498
H	20.2155	9.7387	21.5047
H	21.5047	9.7387	20.2155
O	14.2825	4.7565	21.0755
C	15.6542	4.6477	21.1843
H	15.8959	3.8822	21.9498
H	16.0933	4.3273	20.2155
H	16.0933	5.6165	21.5047
O	14.2825	21.0755	4.7565
C	15.6542	21.1843	4.6477
H	15.8959	21.9498	3.8822
H	16.0933	20.2155	4.3273
H	16.0933	21.5047	5.6165
O	11.5495	21.0755	21.0755
C	10.1778	21.1843	21.1843
H	9.9361	21.9498	21.9498
H	9.7387	21.5047	20.2155
H	9.7387	20.2155	21.5047
O	11.5495	4.7565	4.7565
C	10.1778	4.6477	4.6477
H	9.9361	3.8822	3.8822
H	9.7387	5.6165	4.3273
H	9.7387	4.3273	5.6165
