568

Zn	7.5786	5.3374	5.3374
Zn	18.2534	20.4946	5.3374
Zn	18.2534	5.3374	20.4946
Zn	7.5786	20.4946	20.4946
Zn	5.3374	7.5786	5.3374
Zn	5.3374	18.2534	20.4946
Zn	20.4946	18.2534	5.3374
Zn	20.4946	7.5786	20.4946
Zn	5.3374	5.3374	7.5786
Zn	20.4946	5.3374	18.2534
Zn	5.3374	20.4946	18.2534
Zn	20.4946	20.4946	7.5786
Zn	5.3374	7.5786	20.4946
Zn	20.4946	18.2534	20.4946
Zn	5.3374	18.2534	5.3374
Zn	20.4946	7.5786	5.3374
Zn	7.5786	5.3374	20.4946
Zn	18.2534	5.3374	5.3374
Zn	18.2534	20.4946	20.4946
Zn	7.5786	20.4946	5.3374
Zn	5.3374	5.3374	18.2534
Zn	5.3374	20.4946	7.5786
Zn	20.4946	5.3374	7.5786
Zn	20.4946	20.4946	18.2534
Zn	7.5786	18.2534	18.2534
Zn	18.2534	7.5786	18.2534
Zn	18.2534	18.2534	7.5786
Zn	7.5786	7.5786	7.5786
Zn	7.5786	18.2534	7.5786
Zn	18.2534	18.2534	18.2534
Zn	18.2534	7.5786	7.5786
Zn	7.5786	7.5786	18.2534
O	6.4580	6.4580	6.4580
O	19.3740	19.3740	6.4580
O	19.3740	6.4580	19.3740
O	6.4580	19.3740	19.3740
O	6.4580	6.4580	19.3740
O	19.3740	19.3740	19.3740
O	6.4580	19.3740	6.4580
O	19.3740	6.4580	6.4580
O	7.2813	5.6347	3.4615
O	18.5507	20.1973	3.4615
O	18.5507	5.6347	22.3705
O	7.2813	20.1973	22.3705
O	3.4615	7.2813	5.6347
O	3.4615	18.5507	20.1973
O	22.3705	18.5507	5.6347
O	22.3705	7.2813	20.1973
O	5.6347	3.4615	7.2813
O	20.1973	3.4615	18.5507
O	5.6347	22.3705	18.5507
O	20.1973	22.3705	7.2813
O	5.6347	7.2813	22.3705
O	20.1973	18.5507	22.3705
O	5.6347	18.5507	3.4615
O	20.1973	7.2813	3.4615
O	7.2813	3.4615	20.1973
O	18.5507	3.4615	5.6347
O	18.5507	22.3705	20.1973
O	7.2813	22.3705	5.6347
O	3.4615	5.6347	18.5507
O	3.4615	20.1973	7.2813
O	22.3705	5.6347	7.2813
O	22.3705	20.1973	18.5507
O	7.2813	18.5507	16.3775
O	18.5507	7.2813	16.3775
O	18.5507	18.5507	9.4545
O	7.2813	7.2813	9.4545
O	3.4615	20.1973	18.5507
O	3.4615	5.6347	7.2813
O	22.3705	5.6347	18.5507
O	22.3705	20.1973	7.2813
O	5.6347	16.3775	20.1973
O	20.1973	16.3775	5.6347
O	5.6347	9.4545	5.6347
O	20.1973	9.4545	20.1973
O	5.6347	20.1973	9.4545
O	20.1973	5.6347	9.4545
O	5.6347	5.6347	16.3775
O	20.1973	20.1973	16.3775
O	7.2813	16.3775	7.2813
O	18.5507	16.3775	18.5507
O	18.5507	9.4545	7.2813
O	7.2813	9.4545	18.5507
O	3.4615	18.5507	5.6347
O	3.4615	7.2813	20.1973
O	22.3705	18.5507	20.1973
O	22.3705	7.2813	5.6347
O	20.1973	5.6347	16.3775
O	5.6347	20.1973	16.3775
O	5.6347	5.6347	9.4545
O	20.1973	20.1973	9.4545
O	16.3775	7.2813	18.5507
O	16.3775	18.5507	7.2813
O	9.4545	18.5507	18.5507
O	9.4545	7.2813	7.2813
O	18.5507	3.4615	20.1973
O	7.2813	3.4615	5.6347
O	18.5507	22.3705	5.6347
O	7.2813	22.3705	20.1973
O	18.5507	7.2813	9.4545
O	7.2813	18.5507	9.4545
O	18.5507	18.5507	16.3775
O	7.2813	7.2813	16.3775
O	20.1973	3.4615	7.2813
O	5.6347	3.4615	18.5507
O	5.6347	22.3705	7.2813
O	20.1973	22.3705	18.5507
O	16.3775	5.6347	5.6347
O	16.3775	20.1973	20.1973
O	9.4545	5.6347	20.1973
O	9.4545	20.1973	5.6347
O	20.1973	18.5507	3.4615
O	5.6347	7.2813	3.4615
O	5.6347	18.5507	22.3705
O	20.1973	7.2813	22.3705
O	16.3775	20.1973	5.6347
O	16.3775	5.6347	20.1973
O	9.4545	5.6347	5.6347
O	9.4545	20.1973	20.1973
O	18.5507	16.3775	7.2813
O	7.2813	16.3775	18.5507
O	18.5507	9.4545	18.5507
O	7.2813	9.4545	7.2813
O	18.5507	20.1973	22.3705
O	7.2813	5.6347	22.3705
O	18.5507	5.6347	3.4615
O	7.2813	20.1973	3.4615
O	20.1973	16.3775	20.1973
O	5.6347	16.3775	5.6347
O	5.6347	9.4545	20.1973
O	20.1973	9.4545	5.6347
O	16.3775	18.5507	18.5507
O	16.3775	7.2813	7.2813
O	9.4545	18.5507	7.2813
O	9.4545	7.2813	18.5507
C	6.4580	6.4580	2.8751
C	19.3740	19.3740	2.8751
C	19.3740	6.4580	22.9569
C	6.4580	19.3740	22.9569
C	2.8751	6.4580	6.4580
C	2.8751	19.3740	19.3740
C	22.9569	19.3740	6.4580
C	22.9569	6.4580	19.3740
C	6.4580	2.8751	6.4580
C	19.3740	2.8751	19.3740
C	6.4580	22.9569	19.3740
C	19.3740	22.9569	6.4580
C	6.4580	6.4580	22.9569
C	19.3740	19.3740	22.9569
C	6.4580	19.3740	2.8751
C	19.3740	6.4580	2.8751
C	6.4580	2.8751	19.3740
C	19.3740	2.8751	6.4580
C	19.3740	22.9569	19.3740
C	6.4580	22.9569	6.4580
C	2.8751	6.4580	19.3740
C	2.8751	19.3740	6.4580
C	22.9569	6.4580	6.4580
C	22.9569	19.3740	19.3740
C	6.4580	19.3740	15.7911
C	19.3740	6.4580	15.7911
C	19.3740	19.3740	10.0409
C	6.4580	6.4580	10.0409
C	6.4580	15.7911	19.3740
C	19.3740	15.7911	6.4580
C	6.4580	10.0409	6.4580
C	19.3740	10.0409	19.3740
C	6.4580	19.3740	10.0409
C	19.3740	6.4580	10.0409
C	6.4580	6.4580	15.7911
C	19.3740	19.3740	15.7911
C	6.4580	15.7911	6.4580
C	19.3740	15.7911	19.3740
C	19.3740	10.0409	6.4580
C	6.4580	10.0409	19.3740
C	15.7911	6.4580	19.3740
C	15.7911	19.3740	6.4580
C	10.0409	19.3740	19.3740
C	10.0409	6.4580	6.4580
C	15.7911	6.4580	6.4580
C	15.7911	19.3740	19.3740
C	10.0409	6.4580	19.3740
C	10.0409	19.3740	6.4580
C	6.4580	6.4580	1.3898
C	19.3740	19.3740	1.3898
C	19.3740	6.4580	24.4422
C	6.4580	19.3740	24.4422
C	1.3898	6.4580	6.4580
C	1.3898	19.3740	19.3740
C	24.4422	19.3740	6.4580
C	24.4422	6.4580	19.3740
C	6.4580	1.3898	6.4580
C	19.3740	1.3898	19.3740
C	6.4580	24.4422	19.3740
C	19.3740	24.4422	6.4580
C	6.4580	6.4580	24.4422
C	19.3740	19.3740	24.4422
C	6.4580	19.3740	1.3898
C	19.3740	6.4580	1.3898
C	6.4580	1.3898	19.3740
C	19.3740	1.3898	6.4580
C	19.3740	24.4422	19.3740
C	6.4580	24.4422	6.4580
C	1.3898	6.4580	19.3740
C	1.3898	19.3740	6.4580
C	24.4422	6.4580	6.4580
C	24.4422	19.3740	19.3740
C	6.4580	19.3740	14.3058
C	19.3740	6.4580	14.3058
C	19.3740	19.3740	11.5262
C	6.4580	6.4580	11.5262
C	6.4580	14.3058	19.3740
C	19.3740	14.3058	6.4580
C	6.4580	11.5262	6.4580
C	19.3740	11.5262	19.3740
C	6.4580	19.3740	11.5262
C	19.3740	6.4580	11.5262
C	6.4580	6.4580	14.3058
C	19.3740	19.3740	14.3058
C	6.4580	14.3058	6.4580
C	19.3740	14.3058	19.3740
C	19.3740	11.5262	6.4580
C	6.4580	11.5262	19.3740
C	14.3058	6.4580	19.3740
C	14.3058	19.3740	6.4580
C	11.5262	19.3740	19.3740
C	11.5262	6.4580	6.4580
C	14.3058	6.4580	6.4580
C	14.3058	19.3740	19.3740
C	11.5262	6.4580	19.3740
C	11.5262	19.3740	6.4580
C	7.3079	5.6081	0.6949
C	18.5241	20.2239	0.6949
C	18.5241	5.6081	25.1371
C	7.3079	20.2239	25.1371
C	0.6949	7.3079	5.6081
C	0.6949	18.5241	20.2239
C	25.1371	18.5241	5.6081
C	25.1371	7.3079	20.2239
C	5.6081	0.6949	7.3079
C	20.2239	0.6949	18.5241
C	5.6081	25.1371	18.5241
C	20.2239	25.1371	7.3079
C	5.6081	7.3079	25.1371
C	20.2239	18.5241	25.1371
C	5.6081	18.5241	0.6949
C	20.2239	7.3079	0.6949
C	7.3079	0.6949	20.2239
C	18.5241	0.6949	5.6081
C	18.5241	25.1371	20.2239
C	7.3079	25.1371	5.6081
C	0.6949	5.6081	18.5241
C	0.6949	20.2239	7.3079
C	25.1371	5.6081	7.3079
C	25.1371	20.2239	18.5241
C	7.3079	18.5241	13.6109
C	18.5241	7.3079	13.6109
C	18.5241	18.5241	12.2211
C	7.3079	7.3079	12.2211
C	0.6949	20.2239	18.5241
C	0.6949	5.6081	7.3079
C	25.1371	5.6081	18.5241
C	25.1371	20.2239	7.3079
C	5.6081	13.6109	20.2239
C	20.2239	13.6109	5.6081
C	5.6081	12.2211	5.6081
C	20.2239	12.2211	20.2239
C	5.6081	20.2239	12.2211
C	20.2239	5.6081	12.2211
C	5.6081	5.6081	13.6109
C	20.2239	20.2239	13.6109
C	7.3079	13.6109	7.3079
C	18.5241	13.6109	18.5241
C	18.5241	12.2211	7.3079
C	7.3079	12.2211	18.5241
C	0.6949	18.5241	5.6081
C	0.6949	7.3079	20.2239
C	25.1371	18.5241	20.2239
C	25.1371	7.3079	5.6081
C	20.2239	5.6081	13.6109
C	5.6081	20.2239	13.6109
C	5.6081	5.6081	12.2211
C	20.2239	20.2239	12.2211
C	13.6109	7.3079	18.5241
C	13.6109	18.5241	7.3079
C	12.2211	18.5241	18.5241
C	12.2211	7.3079	7.3079
C	18.5241	0.6949	20.2239
C	7.3079	0.6949	5.6081
C	18.5241	25.1371	5.6081
C	7.3079	25.1371	20.2239
C	18.5241	7.3079	12.2211
C	7.3079	18.5241	12.2211
C	18.5241	18.5241	13.6109
C	7.3079	7.3079	13.6109
C	20.2239	0.6949	7.3079
C	5.6081	0.6949	18.5241
C	5.6081	25.1371	7.3079
C	20.2239	25.1371	18.5241
C	13.6109	5.6081	5.6081
C	13.6109	20.2239	20.2239
C	12.2211	5.6081	20.2239
C	12.2211	20.2239	5.6081
C	20.2239	18.5241	0.6949
C	5.6081	7.3079	0.6949
C	5.6081	18.5241	25.1371
C	20.2239	7.3079	25.1371
C	13.6109	20.2239	5.6081
C	13.6109	5.6081	20.2239
C	12.2211	5.6081	5.6081
C	12.2211	20.2239	20.2239
C	18.5241	13.6109	7.3079
C	7.3079	13.6109	18.5241
C	18.5241	12.2211	18.5241
C	7.3079	12.2211	7.3079
C	18.5241	20.2239	25.1371
C	7.3079	5.6081	25.1371
C	18.5241	5.6081	0.6949
C	7.3079	20.2239	0.6949
C	20.2239	13.6109	20.2239
C	5.6081	13.6109	5.6081
C	5.6081	12.2211	20.2239
C	20.2239	12.2211	5.6081
C	13.6109	18.5241	18.5241
C	13.6109	7.3079	7.3079
C	12.2211	18.5241	7.3079
C	12.2211	7.3079	18.5241
H	7.8762	5.0398	1.1573
H	17.9558	20.7922	1.1573
H	17.9558	5.0398	24.6747
H	1.1573	7.8762	5.0398
H	1.1573	17.9558	20.7922
H	24.6747	7.8762	20.7922
H	20.7922	1.1573	17.9558
H	5.0398	7.8762	24.6747
H	20.7922	17.9558	24.6747
H	5.0398	17.9558	1.1573
H	20.7922	7.8762	1.1573
H	7.8762	1.1573	20.7922
H	17.9558	1.1573	5.0398
H	17.9558	24.6747	20.7922
H	7.8762	24.6747	5.0398
H	1.1573	5.0398	17.9558
H	1.1573	20.7922	7.8762
H	24.6747	5.0398	7.8762
H	24.6747	20.7922	17.9558
H	17.9558	7.8762	14.0733
H	24.6747	20.7922	7.8762
H	5.0398	20.7922	11.7587
H	20.7922	5.0398	11.7587
H	5.0398	5.0398	14.0733
H	20.7922	20.7922	14.0733
H	7.8762	14.0733	7.8762
H	17.9558	14.0733	17.9558
H	17.9558	11.7587	7.8762
H	7.8762	11.7587	17.9558
H	1.1573	17.9558	5.0398
H	1.1573	7.8762	20.7922
H	24.6747	17.9558	20.7922
H	24.6747	7.8762	5.0398
H	5.0398	20.7922	14.0733
H	5.0398	5.0398	11.7587
H	20.7922	20.7922	11.7587
H	14.0733	7.8762	17.9558
H	14.0733	17.9558	7.8762
H	11.7587	17.9558	17.9558
H	7.8762	1.1573	5.0398
H	17.9558	24.6747	5.0398
H	7.8762	24.6747	20.7922
H	17.9558	7.8762	11.7587
H	7.8762	17.9558	11.7587
H	17.9558	17.9558	14.0733
H	7.8762	7.8762	14.0733
H	20.7922	1.1573	7.8762
H	5.0398	1.1573	17.9558
H	5.0398	24.6747	7.8762
H	20.7922	24.6747	17.9558
H	14.0733	5.0398	5.0398
H	14.0733	20.7922	20.7922
H	11.7587	5.0398	20.7922
H	11.7587	20.7922	5.0398
H	5.0398	17.9558	24.6747
H	11.7587	5.0398	5.0398
H	17.9558	14.0733	7.8762
H	7.8762	14.0733	17.9558
H	17.9558	11.7587	17.9558
H	7.8762	11.7587	7.8762
H	17.9558	20.7922	24.6747
H	7.8762	5.0398	24.6747
H	17.9558	5.0398	1.1573
H	7.8762	20.7922	1.1573
H	20.7922	14.0733	20.7922
H	5.0398	14.0733	5.0398
H	5.0398	11.7587	20.7922
H	20.7922	11.7587	5.0398
H	14.0733	17.9558	17.9558
H	14.0733	7.8762	7.8762
H	11.7587	17.9558	7.8762
H	11.7587	7.8762	17.9558
C	4.6629	8.2531	1.4828
C	4.7338	8.1821	3.0103
H	3.6149	8.0179	1.1978
H	4.8981	9.3011	1.1978
H	4.4633	7.1654	3.3666
H	4.0117	8.9042	3.4467
H	5.7506	8.4526	3.3667
C	21.1691	17.5789	1.4828
C	21.0982	17.6499	3.0103
H	22.2171	17.8141	1.1978
H	20.9339	16.5309	1.1978
H	21.3687	18.6666	3.3666
H	21.8203	16.9278	3.4467
H	20.0814	17.3794	3.3667
C	21.1691	8.2531	24.3492
C	21.0982	8.1821	22.8217
H	22.2171	8.0179	24.6342
H	20.9339	9.3011	24.6342
H	21.3687	7.1654	22.4654
H	21.8203	8.9042	22.3853
H	20.0814	8.4526	22.4653
C	8.2531	21.1691	24.3492
C	8.1822	21.0981	22.8217
H	9.3011	20.9339	24.6342
H	8.0179	22.2171	24.6342
H	8.4527	20.0814	22.4654
H	8.9043	21.8202	22.3853
H	7.1654	21.3686	22.4653
C	1.4828	4.6629	8.2531
C	3.0103	4.7338	8.1821
H	1.1978	3.6149	8.0179
H	1.1978	4.8981	9.3011
H	3.3666	4.4633	7.1654
H	3.4467	4.0117	8.9042
H	3.3667	5.7506	8.4526
C	1.4828	21.1691	17.5789
C	3.0103	21.0981	17.6498
H	1.1978	20.9339	16.5309
H	1.1978	22.2171	17.8141
H	3.3666	20.0814	17.3793
H	3.4467	21.8202	16.9277
H	3.3667	21.3686	18.6666
C	24.3492	17.5789	4.6629
C	22.8217	17.6499	4.7338
H	24.6342	17.8141	3.6149
H	24.6342	16.5309	4.8981
H	22.4654	18.6666	4.4633
H	22.3853	16.9278	4.0117
H	22.4653	17.3794	5.7506
C	24.3492	4.6629	17.5789
C	22.8217	4.7338	17.6499
H	24.6342	3.6149	17.8141
H	24.6342	4.8981	16.5309
H	22.4654	4.4633	18.6666
H	22.3853	4.0117	16.9278
H	22.4653	5.7506	17.3794
C	4.6629	1.4828	8.2531
C	4.7338	3.0103	8.1821
H	3.6149	1.1978	8.0179
H	4.8981	1.1978	9.3011
H	4.4633	3.3666	7.1654
H	4.0117	3.4467	8.9042
H	5.7506	3.3667	8.4526
C	17.5789	1.4828	21.1691
C	17.6499	3.0103	21.0982
H	17.8141	1.1978	22.2171
H	16.5309	1.1978	20.9339
H	18.6666	3.3666	21.3687
H	16.9278	3.4467	21.8203
H	17.3794	3.3667	20.0814
C	4.6629	24.3492	17.5789
C	4.7338	22.8217	17.6499
H	3.6149	24.6342	17.8141
H	4.8981	24.6342	16.5309
H	4.4633	22.4654	18.6666
H	4.0117	22.3853	16.9278
H	5.7506	22.4653	17.3794
C	21.1691	24.3492	8.2531
C	21.0982	22.8217	8.1821
H	22.2171	24.6342	8.0179
H	20.9339	24.6342	9.3011
H	21.3687	22.4654	7.1654
H	21.8203	22.3853	8.9042
H	20.0814	22.4653	8.4526
C	8.2531	17.5789	14.3988
C	8.1822	17.6499	15.9263
H	9.3011	17.8141	14.1138
H	8.0179	16.5309	14.1138
H	8.4527	18.6666	16.2826
H	8.9043	16.9278	16.3627
H	7.1654	17.3794	16.2827
C	21.1691	4.6629	14.3988
C	21.0982	4.7339	15.9263
H	22.2171	4.8981	14.1138
H	20.9339	3.6149	14.1138
H	21.3687	5.7506	16.2826
H	21.8203	4.0118	16.3627
H	20.0814	4.4634	16.2827
C	17.5789	17.5789	11.4332
C	17.6498	17.6499	9.9057
H	16.5309	17.8141	11.7182
H	17.8141	16.5309	11.7182
H	17.3793	18.6666	9.5494
H	16.9277	16.9278	9.4693
H	18.6666	17.3794	9.5493
C	8.2531	8.2531	11.4332
C	8.1822	8.1821	9.9057
H	9.3011	8.0179	11.7182
H	8.0179	9.3011	11.7182
H	8.4527	7.1654	9.5494
H	8.9043	8.9042	9.4693
H	7.1654	8.4526	9.5493
C	4.6629	14.3988	21.1691
C	4.7339	15.9263	21.0982
H	4.8981	14.1138	22.2171
H	3.6149	14.1138	20.9339
H	5.7506	16.2826	21.3687
H	4.0118	16.3627	21.8203
H	4.4634	16.2827	20.0814
C	21.1691	14.3988	4.6629
C	21.0981	15.9263	4.7338
H	20.9339	14.1138	3.6149
H	22.2171	14.1138	4.8981
H	20.0814	16.2826	4.4633
H	21.8202	16.3627	4.0117
H	21.3686	16.2827	5.7506
C	4.6629	11.4332	4.6629
C	4.7339	9.9057	4.7338
H	4.8981	11.7182	3.6149
H	3.6149	11.7182	4.8981
H	5.7506	9.5494	4.4633
H	4.0118	9.4693	4.0117
H	4.4634	9.5493	5.7506
C	21.1691	11.4332	21.1691
C	21.0982	9.9057	21.0981
H	22.2171	11.7182	20.9339
H	20.9339	11.7182	22.2171
H	21.3687	9.5494	20.0814
H	21.8203	9.4693	21.8202
H	20.0814	9.5493	21.3686
C	14.3988	4.6629	21.1691
C	15.9263	4.7338	21.0981
H	14.1138	3.6149	20.9339
H	14.1138	4.8981	22.2171
H	16.2826	4.4633	20.0814
H	16.3627	4.0117	21.8202
H	16.2827	5.7506	21.3686
C	14.3988	21.1691	4.6629
C	15.9263	21.0981	4.7338
H	14.1138	20.9339	3.6149
H	14.1138	22.2171	4.8981
H	16.2826	20.0814	4.4633
H	16.3627	21.8202	4.0117
H	16.2827	21.3686	5.7506
C	11.4332	21.1691	21.1691
C	9.9057	21.0981	21.0982
H	11.7182	20.9339	22.2171
H	11.7182	22.2171	20.9339
H	9.5494	20.0814	21.3687
H	9.4693	21.8202	21.8203
H	9.5493	21.3686	20.0814
C	11.4332	8.2531	8.2531
C	9.9057	8.1821	8.1822
H	11.7182	8.0179	9.3011
H	11.7182	9.3011	8.0179
H	9.5494	7.1654	8.4527
H	9.4693	8.9042	8.9043
H	9.5493	8.4526	7.1654
