520

Zn	7.5786	5.3374	5.3374
Zn	18.2534	20.4946	5.3374
Zn	18.2534	5.3374	20.4946
Zn	7.5786	20.4946	20.4946
Zn	5.3374	7.5786	5.3374
Zn	5.3374	18.2534	20.4946
Zn	20.4946	18.2534	5.3374
Zn	20.4946	7.5786	20.4946
Zn	5.3374	5.3374	7.5786
Zn	20.4946	5.3374	18.2534
Zn	5.3374	20.4946	18.2534
Zn	20.4946	20.4946	7.5786
Zn	5.3374	7.5786	20.4946
Zn	20.4946	18.2534	20.4946
Zn	5.3374	18.2534	5.3374
Zn	20.4946	7.5786	5.3374
Zn	7.5786	5.3374	20.4946
Zn	18.2534	5.3374	5.3374
Zn	18.2534	20.4946	20.4946
Zn	7.5786	20.4946	5.3374
Zn	5.3374	5.3374	18.2534
Zn	5.3374	20.4946	7.5786
Zn	20.4946	5.3374	7.5786
Zn	20.4946	20.4946	18.2534
Zn	7.5786	18.2534	18.2534
Zn	18.2534	7.5786	18.2534
Zn	18.2534	18.2534	7.5786
Zn	7.5786	7.5786	7.5786
Zn	7.5786	18.2534	7.5786
Zn	18.2534	18.2534	18.2534
Zn	18.2534	7.5786	7.5786
Zn	7.5786	7.5786	18.2534
O	6.4580	6.4580	6.4580
O	19.3740	19.3740	6.4580
O	19.3740	6.4580	19.3740
O	6.4580	19.3740	19.3740
O	6.4580	6.4580	19.3740
O	19.3740	19.3740	19.3740
O	6.4580	19.3740	6.4580
O	19.3740	6.4580	6.4580
O	7.2813	5.6347	3.4615
O	18.5507	20.1973	3.4615
O	18.5507	5.6347	22.3705
O	7.2813	20.1973	22.3705
O	3.4615	7.2813	5.6347
O	3.4615	18.5507	20.1973
O	22.3705	18.5507	5.6347
O	22.3705	7.2813	20.1973
O	5.6347	3.4615	7.2813
O	20.1973	3.4615	18.5507
O	5.6347	22.3705	18.5507
O	20.1973	22.3705	7.2813
O	5.6347	7.2813	22.3705
O	20.1973	18.5507	22.3705
O	5.6347	18.5507	3.4615
O	20.1973	7.2813	3.4615
O	7.2813	3.4615	20.1973
O	18.5507	3.4615	5.6347
O	18.5507	22.3705	20.1973
O	7.2813	22.3705	5.6347
O	3.4615	5.6347	18.5507
O	3.4615	20.1973	7.2813
O	22.3705	5.6347	7.2813
O	22.3705	20.1973	18.5507
O	7.2813	18.5507	16.3775
O	18.5507	7.2813	16.3775
O	18.5507	18.5507	9.4545
O	7.2813	7.2813	9.4545
O	3.4615	20.1973	18.5507
O	3.4615	5.6347	7.2813
O	22.3705	5.6347	18.5507
O	22.3705	20.1973	7.2813
O	5.6347	16.3775	20.1973
O	20.1973	16.3775	5.6347
O	5.6347	9.4545	5.6347
O	20.1973	9.4545	20.1973
O	5.6347	20.1973	9.4545
O	20.1973	5.6347	9.4545
O	5.6347	5.6347	16.3775
O	20.1973	20.1973	16.3775
O	7.2813	16.3775	7.2813
O	18.5507	16.3775	18.5507
O	18.5507	9.4545	7.2813
O	7.2813	9.4545	18.5507
O	3.4615	18.5507	5.6347
O	3.4615	7.2813	20.1973
O	22.3705	18.5507	20.1973
O	22.3705	7.2813	5.6347
O	20.1973	5.6347	16.3775
O	5.6347	20.1973	16.3775
O	5.6347	5.6347	9.4545
O	20.1973	20.1973	9.4545
O	16.3775	7.2813	18.5507
O	16.3775	18.5507	7.2813
O	9.4545	18.5507	18.5507
O	9.4545	7.2813	7.2813
O	18.5507	3.4615	20.1973
O	7.2813	3.4615	5.6347
O	18.5507	22.3705	5.6347
O	7.2813	22.3705	20.1973
O	18.5507	7.2813	9.4545
O	7.2813	18.5507	9.4545
O	18.5507	18.5507	16.3775
O	7.2813	7.2813	16.3775
O	20.1973	3.4615	7.2813
O	5.6347	3.4615	18.5507
O	5.6347	22.3705	7.2813
O	20.1973	22.3705	18.5507
O	16.3775	5.6347	5.6347
O	16.3775	20.1973	20.1973
O	9.4545	5.6347	20.1973
O	9.4545	20.1973	5.6347
O	20.1973	18.5507	3.4615
O	5.6347	7.2813	3.4615
O	5.6347	18.5507	22.3705
O	20.1973	7.2813	22.3705
O	16.3775	20.1973	5.6347
O	16.3775	5.6347	20.1973
O	9.4545	5.6347	5.6347
O	9.4545	20.1973	20.1973
O	18.5507	16.3775	7.2813
O	7.2813	16.3775	18.5507
O	18.5507	9.4545	18.5507
O	7.2813	9.4545	7.2813
O	18.5507	20.1973	22.3705
O	7.2813	5.6347	22.3705
O	18.5507	5.6347	3.4615
O	7.2813	20.1973	3.4615
O	20.1973	16.3775	20.1973
O	5.6347	16.3775	5.6347
O	5.6347	9.4545	20.1973
O	20.1973	9.4545	5.6347
O	16.3775	18.5507	18.5507
O	16.3775	7.2813	7.2813
O	9.4545	18.5507	7.2813
O	9.4545	7.2813	18.5507
C	6.4580	6.4580	2.8751
C	19.3740	19.3740	2.8751
C	19.3740	6.4580	22.9569
C	6.4580	19.3740	22.9569
C	2.8751	6.4580	6.4580
C	2.8751	19.3740	19.3740
C	22.9569	19.3740	6.4580
C	22.9569	6.4580	19.3740
C	6.4580	2.8751	6.4580
C	19.3740	2.8751	19.3740
C	6.4580	22.9569	19.3740
C	19.3740	22.9569	6.4580
C	6.4580	6.4580	22.9569
C	19.3740	19.3740	22.9569
C	6.4580	19.3740	2.8751
C	19.3740	6.4580	2.8751
C	6.4580	2.8751	19.3740
C	19.3740	2.8751	6.4580
C	19.3740	22.9569	19.3740
C	6.4580	22.9569	6.4580
C	2.8751	6.4580	19.3740
C	2.8751	19.3740	6.4580
C	22.9569	6.4580	6.4580
C	22.9569	19.3740	19.3740
C	6.4580	19.3740	15.7911
C	19.3740	6.4580	15.7911
C	19.3740	19.3740	10.0409
C	6.4580	6.4580	10.0409
C	6.4580	15.7911	19.3740
C	19.3740	15.7911	6.4580
C	6.4580	10.0409	6.4580
C	19.3740	10.0409	19.3740
C	6.4580	19.3740	10.0409
C	19.3740	6.4580	10.0409
C	6.4580	6.4580	15.7911
C	19.3740	19.3740	15.7911
C	6.4580	15.7911	6.4580
C	19.3740	15.7911	19.3740
C	19.3740	10.0409	6.4580
C	6.4580	10.0409	19.3740
C	15.7911	6.4580	19.3740
C	15.7911	19.3740	6.4580
C	10.0409	19.3740	19.3740
C	10.0409	6.4580	6.4580
C	15.7911	6.4580	6.4580
C	15.7911	19.3740	19.3740
C	10.0409	6.4580	19.3740
C	10.0409	19.3740	6.4580
C	6.4580	6.4580	1.3898
C	19.3740	19.3740	1.3898
C	19.3740	6.4580	24.4422
C	6.4580	19.3740	24.4422
C	1.3898	6.4580	6.4580
C	1.3898	19.3740	19.3740
C	24.4422	19.3740	6.4580
C	24.4422	6.4580	19.3740
C	6.4580	1.3898	6.4580
C	19.3740	1.3898	19.3740
C	6.4580	24.4422	19.3740
C	19.3740	24.4422	6.4580
C	6.4580	6.4580	24.4422
C	19.3740	19.3740	24.4422
C	6.4580	19.3740	1.3898
C	19.3740	6.4580	1.3898
C	6.4580	1.3898	19.3740
C	19.3740	1.3898	6.4580
C	19.3740	24.4422	19.3740
C	6.4580	24.4422	6.4580
C	1.3898	6.4580	19.3740
C	1.3898	19.3740	6.4580
C	24.4422	6.4580	6.4580
C	24.4422	19.3740	19.3740
C	6.4580	19.3740	14.3058
C	19.3740	6.4580	14.3058
C	19.3740	19.3740	11.5262
C	6.4580	6.4580	11.5262
C	6.4580	14.3058	19.3740
C	19.3740	14.3058	6.4580
C	6.4580	11.5262	6.4580
C	19.3740	11.5262	19.3740
C	6.4580	19.3740	11.5262
C	19.3740	6.4580	11.5262
C	6.4580	6.4580	14.3058
C	19.3740	19.3740	14.3058
C	6.4580	14.3058	6.4580
C	19.3740	14.3058	19.3740
C	19.3740	11.5262	6.4580
C	6.4580	11.5262	19.3740
C	14.3058	6.4580	19.3740
C	14.3058	19.3740	6.4580
C	11.5262	19.3740	19.3740
C	11.5262	6.4580	6.4580
C	14.3058	6.4580	6.4580
C	14.3058	19.3740	19.3740
C	11.5262	6.4580	19.3740
C	11.5262	19.3740	6.4580
C	7.3079	5.6081	0.6949
C	18.5241	20.2239	0.6949
C	18.5241	5.6081	25.1371
C	7.3079	20.2239	25.1371
C	0.6949	7.3079	5.6081
C	0.6949	18.5241	20.2239
C	25.1371	18.5241	5.6081
C	25.1371	7.3079	20.2239
C	5.6081	0.6949	7.3079
C	20.2239	0.6949	18.5241
C	5.6081	25.1371	18.5241
C	20.2239	25.1371	7.3079
C	5.6081	7.3079	25.1371
C	20.2239	18.5241	25.1371
C	5.6081	18.5241	0.6949
C	20.2239	7.3079	0.6949
C	7.3079	0.6949	20.2239
C	18.5241	0.6949	5.6081
C	18.5241	25.1371	20.2239
C	7.3079	25.1371	5.6081
C	0.6949	5.6081	18.5241
C	0.6949	20.2239	7.3079
C	25.1371	5.6081	7.3079
C	25.1371	20.2239	18.5241
C	7.3079	18.5241	13.6109
C	18.5241	7.3079	13.6109
C	18.5241	18.5241	12.2211
C	7.3079	7.3079	12.2211
C	0.6949	20.2239	18.5241
C	0.6949	5.6081	7.3079
C	25.1371	5.6081	18.5241
C	25.1371	20.2239	7.3079
C	5.6081	13.6109	20.2239
C	20.2239	13.6109	5.6081
C	5.6081	12.2211	5.6081
C	20.2239	12.2211	20.2239
C	5.6081	20.2239	12.2211
C	20.2239	5.6081	12.2211
C	5.6081	5.6081	13.6109
C	20.2239	20.2239	13.6109
C	7.3079	13.6109	7.3079
C	18.5241	13.6109	18.5241
C	18.5241	12.2211	7.3079
C	7.3079	12.2211	18.5241
C	0.6949	18.5241	5.6081
C	0.6949	7.3079	20.2239
C	25.1371	18.5241	20.2239
C	25.1371	7.3079	5.6081
C	20.2239	5.6081	13.6109
C	5.6081	20.2239	13.6109
C	5.6081	5.6081	12.2211
C	20.2239	20.2239	12.2211
C	13.6109	7.3079	18.5241
C	13.6109	18.5241	7.3079
C	12.2211	18.5241	18.5241
C	12.2211	7.3079	7.3079
C	18.5241	0.6949	20.2239
C	7.3079	0.6949	5.6081
C	18.5241	25.1371	5.6081
C	7.3079	25.1371	20.2239
C	18.5241	7.3079	12.2211
C	7.3079	18.5241	12.2211
C	18.5241	18.5241	13.6109
C	7.3079	7.3079	13.6109
C	20.2239	0.6949	7.3079
C	5.6081	0.6949	18.5241
C	5.6081	25.1371	7.3079
C	20.2239	25.1371	18.5241
C	13.6109	5.6081	5.6081
C	13.6109	20.2239	20.2239
C	12.2211	5.6081	20.2239
C	12.2211	20.2239	5.6081
C	20.2239	18.5241	0.6949
C	5.6081	7.3079	0.6949
C	5.6081	18.5241	25.1371
C	20.2239	7.3079	25.1371
C	13.6109	20.2239	5.6081
C	13.6109	5.6081	20.2239
C	12.2211	5.6081	5.6081
C	12.2211	20.2239	20.2239
C	18.5241	13.6109	7.3079
C	7.3079	13.6109	18.5241
C	18.5241	12.2211	18.5241
C	7.3079	12.2211	7.3079
C	18.5241	20.2239	25.1371
C	7.3079	5.6081	25.1371
C	18.5241	5.6081	0.6949
C	7.3079	20.2239	0.6949
C	20.2239	13.6109	20.2239
C	5.6081	13.6109	5.6081
C	5.6081	12.2211	20.2239
C	20.2239	12.2211	5.6081
C	13.6109	18.5241	18.5241
C	13.6109	7.3079	7.3079
C	12.2211	18.5241	7.3079
C	12.2211	7.3079	18.5241
H	7.8762	5.0398	1.1573
H	17.9558	20.7922	1.1573
H	17.9558	5.0398	24.6747
H	7.8762	20.7922	24.6747
H	1.1573	7.8762	5.0398
H	1.1573	17.9558	20.7922
H	24.6747	17.9558	5.0398
H	24.6747	7.8762	20.7922
H	5.0398	1.1573	7.8762
H	20.7922	1.1573	17.9558
H	5.0398	24.6747	17.9558
H	20.7922	24.6747	7.8762
H	7.8762	17.9558	14.0733
H	17.9558	7.8762	14.0733
H	17.9558	17.9558	11.7587
H	7.8762	7.8762	11.7587
H	1.1573	20.7922	17.9558
H	1.1573	5.0398	7.8762
H	24.6747	5.0398	17.9558
H	24.6747	20.7922	7.8762
H	5.0398	14.0733	20.7922
H	20.7922	14.0733	5.0398
H	5.0398	11.7587	5.0398
H	20.7922	11.7587	20.7922
H	1.1573	17.9558	5.0398
H	1.1573	7.8762	20.7922
H	24.6747	17.9558	20.7922
H	24.6747	7.8762	5.0398
H	20.7922	5.0398	14.0733
H	5.0398	20.7922	14.0733
H	5.0398	5.0398	11.7587
H	20.7922	20.7922	11.7587
H	14.0733	7.8762	17.9558
H	14.0733	17.9558	7.8762
H	11.7587	17.9558	17.9558
H	11.7587	7.8762	7.8762
H	17.9558	1.1573	20.7922
H	7.8762	1.1573	5.0398
H	17.9558	24.6747	5.0398
H	7.8762	24.6747	20.7922
H	17.9558	7.8762	11.7587
H	7.8762	17.9558	11.7587
H	17.9558	17.9558	14.0733
H	7.8762	7.8762	14.0733
H	20.7922	1.1573	7.8762
H	5.0398	1.1573	17.9558
H	5.0398	24.6747	7.8762
H	20.7922	24.6747	17.9558
H	20.7922	17.9558	1.1573
H	5.0398	7.8762	1.1573
H	5.0398	17.9558	24.6747
H	20.7922	7.8762	24.6747
H	14.0733	20.7922	5.0398
H	14.0733	5.0398	20.7922
H	11.7587	5.0398	5.0398
H	11.7587	20.7922	20.7922
H	17.9558	14.0733	7.8762
H	7.8762	14.0733	17.9558
H	17.9558	11.7587	17.9558
H	7.8762	11.7587	7.8762
H	17.9558	20.7922	24.6747
H	7.8762	5.0398	24.6747
H	17.9558	5.0398	1.1573
H	7.8762	20.7922	1.1573
H	20.7922	14.0733	20.7922
H	5.0398	14.0733	5.0398
H	5.0398	11.7587	20.7922
H	20.7922	11.7587	5.0398
H	14.0733	17.9558	17.9558
H	14.0733	7.8762	7.8762
H	11.7587	17.9558	7.8762
H	11.7587	7.8762	17.9558
O	4.7702	8.1458	24.4319
C	3.8762	9.0398	24.9856
H	3.3448	9.5711	24.1697
H	4.4144	9.7908	25.6025
H	3.1252	8.5016	25.6025
O	21.0618	17.6862	24.4319
C	21.9558	16.7922	24.9856
H	22.4872	16.2609	24.1697
H	21.4176	16.0412	25.6025
H	22.7068	17.3304	25.6025
O	21.0618	8.1458	1.4001
C	21.9558	9.0398	0.8464
H	22.4871	9.5712	1.6623
H	22.7068	8.5016	0.2295
H	21.4176	9.7908	0.2295
O	4.7702	17.6862	1.4001
C	3.8762	16.7922	0.8464
H	3.3448	16.2609	1.6623
H	4.4144	16.0412	0.2295
H	3.1252	17.3304	0.2295
O	24.4319	4.7702	8.1458
C	24.9856	3.8762	9.0398
H	24.1697	3.3449	9.5712
H	25.6025	3.1252	8.5016
H	25.6025	4.4144	9.7908
O	24.4319	21.0618	17.6862
C	24.9856	21.9558	16.7922
H	24.1697	22.4871	16.2608
H	25.6025	22.7068	17.3304
H	25.6025	21.4176	16.0412
O	1.4001	21.0618	8.1458
C	0.8464	21.9558	9.0398
H	1.6623	22.4871	9.5712
H	0.2295	22.7068	8.5016
H	0.2295	21.4176	9.7908
O	1.4001	4.7702	17.6862
C	0.8464	3.8762	16.7922
H	1.6623	3.3448	16.2609
H	0.2295	4.4144	16.0412
H	0.2295	3.1252	17.3304
O	8.1458	24.4319	4.7702
C	9.0398	24.9856	3.8762
H	9.5712	24.1697	3.3449
H	8.5016	25.6025	3.1252
H	9.7908	25.6025	4.4144
O	17.6862	24.4319	21.0618
C	16.7922	24.9856	21.9558
H	16.2609	24.1697	22.4872
H	16.0412	25.6025	21.4176
H	17.3304	25.6025	22.7068
O	8.1458	1.4001	21.0618
C	9.0398	0.8464	21.9558
H	9.5712	1.6623	22.4871
H	8.5016	0.2295	22.7068
H	9.7908	0.2295	21.4176
O	17.6862	1.4001	4.7702
C	16.7922	0.8464	3.8762
H	16.2608	1.6623	3.3449
H	17.3304	0.2295	3.1252
H	16.0412	0.2295	4.4144
O	4.7702	21.0618	11.5159
C	3.8762	21.9558	12.0696
H	3.3449	22.4872	11.2537
H	3.1252	21.4176	12.6865
H	4.4144	22.7068	12.6865
O	21.0618	4.7702	11.5159
C	21.9558	3.8762	12.0696
H	22.4872	3.3449	11.2537
H	21.4176	3.1252	12.6865
H	22.7068	4.4144	12.6865
O	21.0618	21.0618	14.3161
C	21.9558	21.9558	13.7624
H	22.4872	22.4871	14.5783
H	21.4176	22.7068	13.1455
H	22.7068	21.4176	13.1455
O	4.7702	4.7702	14.3161
C	3.8762	3.8762	13.7624
H	3.3449	3.3448	14.5783
H	3.1252	4.4144	13.1455
H	4.4144	3.1252	13.1455
O	8.1458	11.5159	17.6862
C	9.0398	12.0696	16.7922
H	9.5712	11.2537	16.2609
H	8.5016	12.6865	16.0412
H	9.7908	12.6865	17.3304
O	17.6862	11.5159	8.1458
C	16.7922	12.0696	9.0398
H	16.2608	11.2537	9.5711
H	17.3304	12.6865	9.7908
H	16.0412	12.6865	8.5016
O	8.1458	14.3161	8.1458
C	9.0398	13.7624	9.0398
H	9.5712	14.5783	9.5711
H	8.5016	13.1455	9.7908
H	9.7908	13.1455	8.5016
O	17.6862	14.3161	17.6862
C	16.7922	13.7624	16.7922
H	16.2609	14.5783	16.2608
H	16.0412	13.1455	17.3304
H	17.3304	13.1455	16.0412
O	11.5159	4.7702	21.0618
C	12.0696	3.8762	21.9558
H	11.2537	3.3449	22.4872
H	12.6865	3.1252	21.4176
H	12.6865	4.4144	22.7068
O	11.5159	21.0618	4.7702
C	12.0696	21.9558	3.8762
H	11.2537	22.4872	3.3449
H	12.6865	21.4176	3.1252
H	12.6865	22.7068	4.4144
O	14.3161	21.0618	21.0618
C	13.7624	21.9558	21.9558
H	14.5783	22.4872	22.4871
H	13.1455	21.4176	22.7068
H	13.1455	22.7068	21.4176
O	14.3161	4.7702	4.7702
C	13.7624	3.8762	3.8762
H	14.5783	3.3449	3.3448
H	13.1455	3.1252	4.4144
H	13.1455	4.4144	3.1252
