568

Zn	7.5786	5.3374	5.3374
Zn	18.2534	20.4946	5.3374
Zn	18.2534	5.3374	20.4946
Zn	7.5786	20.4946	20.4946
Zn	5.3374	7.5786	5.3374
Zn	5.3374	18.2534	20.4946
Zn	20.4946	18.2534	5.3374
Zn	20.4946	7.5786	20.4946
Zn	5.3374	5.3374	7.5786
Zn	20.4946	5.3374	18.2534
Zn	5.3374	20.4946	18.2534
Zn	20.4946	20.4946	7.5786
Zn	5.3374	7.5786	20.4946
Zn	20.4946	18.2534	20.4946
Zn	5.3374	18.2534	5.3374
Zn	20.4946	7.5786	5.3374
Zn	7.5786	5.3374	20.4946
Zn	18.2534	5.3374	5.3374
Zn	18.2534	20.4946	20.4946
Zn	7.5786	20.4946	5.3374
Zn	5.3374	5.3374	18.2534
Zn	5.3374	20.4946	7.5786
Zn	20.4946	5.3374	7.5786
Zn	20.4946	20.4946	18.2534
Zn	7.5786	18.2534	18.2534
Zn	18.2534	7.5786	18.2534
Zn	18.2534	18.2534	7.5786
Zn	7.5786	7.5786	7.5786
Zn	7.5786	18.2534	7.5786
Zn	18.2534	18.2534	18.2534
Zn	18.2534	7.5786	7.5786
Zn	7.5786	7.5786	18.2534
O	6.4580	6.4580	6.4580
O	19.3740	19.3740	6.4580
O	19.3740	6.4580	19.3740
O	6.4580	19.3740	19.3740
O	6.4580	6.4580	19.3740
O	19.3740	19.3740	19.3740
O	6.4580	19.3740	6.4580
O	19.3740	6.4580	6.4580
O	7.2813	5.6347	3.4615
O	18.5507	20.1973	3.4615
O	18.5507	5.6347	22.3705
O	7.2813	20.1973	22.3705
O	3.4615	7.2813	5.6347
O	3.4615	18.5507	20.1973
O	22.3705	18.5507	5.6347
O	22.3705	7.2813	20.1973
O	5.6347	3.4615	7.2813
O	20.1973	3.4615	18.5507
O	5.6347	22.3705	18.5507
O	20.1973	22.3705	7.2813
O	5.6347	7.2813	22.3705
O	20.1973	18.5507	22.3705
O	5.6347	18.5507	3.4615
O	20.1973	7.2813	3.4615
O	7.2813	3.4615	20.1973
O	18.5507	3.4615	5.6347
O	18.5507	22.3705	20.1973
O	7.2813	22.3705	5.6347
O	3.4615	5.6347	18.5507
O	3.4615	20.1973	7.2813
O	22.3705	5.6347	7.2813
O	22.3705	20.1973	18.5507
O	7.2813	18.5507	16.3775
O	18.5507	7.2813	16.3775
O	18.5507	18.5507	9.4545
O	7.2813	7.2813	9.4545
O	3.4615	20.1973	18.5507
O	3.4615	5.6347	7.2813
O	22.3705	5.6347	18.5507
O	22.3705	20.1973	7.2813
O	5.6347	16.3775	20.1973
O	20.1973	16.3775	5.6347
O	5.6347	9.4545	5.6347
O	20.1973	9.4545	20.1973
O	5.6347	20.1973	9.4545
O	20.1973	5.6347	9.4545
O	5.6347	5.6347	16.3775
O	20.1973	20.1973	16.3775
O	7.2813	16.3775	7.2813
O	18.5507	16.3775	18.5507
O	18.5507	9.4545	7.2813
O	7.2813	9.4545	18.5507
O	3.4615	18.5507	5.6347
O	3.4615	7.2813	20.1973
O	22.3705	18.5507	20.1973
O	22.3705	7.2813	5.6347
O	20.1973	5.6347	16.3775
O	5.6347	20.1973	16.3775
O	5.6347	5.6347	9.4545
O	20.1973	20.1973	9.4545
O	16.3775	7.2813	18.5507
O	16.3775	18.5507	7.2813
O	9.4545	18.5507	18.5507
O	9.4545	7.2813	7.2813
O	18.5507	3.4615	20.1973
O	7.2813	3.4615	5.6347
O	18.5507	22.3705	5.6347
O	7.2813	22.3705	20.1973
O	18.5507	7.2813	9.4545
O	7.2813	18.5507	9.4545
O	18.5507	18.5507	16.3775
O	7.2813	7.2813	16.3775
O	20.1973	3.4615	7.2813
O	5.6347	3.4615	18.5507
O	5.6347	22.3705	7.2813
O	20.1973	22.3705	18.5507
O	16.3775	5.6347	5.6347
O	16.3775	20.1973	20.1973
O	9.4545	5.6347	20.1973
O	9.4545	20.1973	5.6347
O	20.1973	18.5507	3.4615
O	5.6347	7.2813	3.4615
O	5.6347	18.5507	22.3705
O	20.1973	7.2813	22.3705
O	16.3775	20.1973	5.6347
O	16.3775	5.6347	20.1973
O	9.4545	5.6347	5.6347
O	9.4545	20.1973	20.1973
O	18.5507	16.3775	7.2813
O	7.2813	16.3775	18.5507
O	18.5507	9.4545	18.5507
O	7.2813	9.4545	7.2813
O	18.5507	20.1973	22.3705
O	7.2813	5.6347	22.3705
O	18.5507	5.6347	3.4615
O	7.2813	20.1973	3.4615
O	20.1973	16.3775	20.1973
O	5.6347	16.3775	5.6347
O	5.6347	9.4545	20.1973
O	20.1973	9.4545	5.6347
O	16.3775	18.5507	18.5507
O	16.3775	7.2813	7.2813
O	9.4545	18.5507	7.2813
O	9.4545	7.2813	18.5507
C	6.4580	6.4580	2.8751
C	19.3740	19.3740	2.8751
C	19.3740	6.4580	22.9569
C	6.4580	19.3740	22.9569
C	2.8751	6.4580	6.4580
C	2.8751	19.3740	19.3740
C	22.9569	19.3740	6.4580
C	22.9569	6.4580	19.3740
C	6.4580	2.8751	6.4580
C	19.3740	2.8751	19.3740
C	6.4580	22.9569	19.3740
C	19.3740	22.9569	6.4580
C	6.4580	6.4580	22.9569
C	19.3740	19.3740	22.9569
C	6.4580	19.3740	2.8751
C	19.3740	6.4580	2.8751
C	6.4580	2.8751	19.3740
C	19.3740	2.8751	6.4580
C	19.3740	22.9569	19.3740
C	6.4580	22.9569	6.4580
C	2.8751	6.4580	19.3740
C	2.8751	19.3740	6.4580
C	22.9569	6.4580	6.4580
C	22.9569	19.3740	19.3740
C	6.4580	19.3740	15.7911
C	19.3740	6.4580	15.7911
C	19.3740	19.3740	10.0409
C	6.4580	6.4580	10.0409
C	6.4580	15.7911	19.3740
C	19.3740	15.7911	6.4580
C	6.4580	10.0409	6.4580
C	19.3740	10.0409	19.3740
C	6.4580	19.3740	10.0409
C	19.3740	6.4580	10.0409
C	6.4580	6.4580	15.7911
C	19.3740	19.3740	15.7911
C	6.4580	15.7911	6.4580
C	19.3740	15.7911	19.3740
C	19.3740	10.0409	6.4580
C	6.4580	10.0409	19.3740
C	15.7911	6.4580	19.3740
C	15.7911	19.3740	6.4580
C	10.0409	19.3740	19.3740
C	10.0409	6.4580	6.4580
C	15.7911	6.4580	6.4580
C	15.7911	19.3740	19.3740
C	10.0409	6.4580	19.3740
C	10.0409	19.3740	6.4580
C	6.4580	6.4580	1.3898
C	19.3740	19.3740	1.3898
C	19.3740	6.4580	24.4422
C	6.4580	19.3740	24.4422
C	1.3898	6.4580	6.4580
C	1.3898	19.3740	19.3740
C	24.4422	19.3740	6.4580
C	24.4422	6.4580	19.3740
C	6.4580	1.3898	6.4580
C	19.3740	1.3898	19.3740
C	6.4580	24.4422	19.3740
C	19.3740	24.4422	6.4580
C	6.4580	6.4580	24.4422
C	19.3740	19.3740	24.4422
C	6.4580	19.3740	1.3898
C	19.3740	6.4580	1.3898
C	6.4580	1.3898	19.3740
C	19.3740	1.3898	6.4580
C	19.3740	24.4422	19.3740
C	6.4580	24.4422	6.4580
C	1.3898	6.4580	19.3740
C	1.3898	19.3740	6.4580
C	24.4422	6.4580	6.4580
C	24.4422	19.3740	19.3740
C	6.4580	19.3740	14.3058
C	19.3740	6.4580	14.3058
C	19.3740	19.3740	11.5262
C	6.4580	6.4580	11.5262
C	6.4580	14.3058	19.3740
C	19.3740	14.3058	6.4580
C	6.4580	11.5262	6.4580
C	19.3740	11.5262	19.3740
C	6.4580	19.3740	11.5262
C	19.3740	6.4580	11.5262
C	6.4580	6.4580	14.3058
C	19.3740	19.3740	14.3058
C	6.4580	14.3058	6.4580
C	19.3740	14.3058	19.3740
C	19.3740	11.5262	6.4580
C	6.4580	11.5262	19.3740
C	14.3058	6.4580	19.3740
C	14.3058	19.3740	6.4580
C	11.5262	19.3740	19.3740
C	11.5262	6.4580	6.4580
C	14.3058	6.4580	6.4580
C	14.3058	19.3740	19.3740
C	11.5262	6.4580	19.3740
C	11.5262	19.3740	6.4580
C	7.3079	5.6081	0.6949
C	18.5241	20.2239	0.6949
C	18.5241	5.6081	25.1371
C	7.3079	20.2239	25.1371
C	0.6949	7.3079	5.6081
C	0.6949	18.5241	20.2239
C	25.1371	18.5241	5.6081
C	25.1371	7.3079	20.2239
C	5.6081	0.6949	7.3079
C	20.2239	0.6949	18.5241
C	5.6081	25.1371	18.5241
C	20.2239	25.1371	7.3079
C	5.6081	7.3079	25.1371
C	20.2239	18.5241	25.1371
C	5.6081	18.5241	0.6949
C	20.2239	7.3079	0.6949
C	7.3079	0.6949	20.2239
C	18.5241	0.6949	5.6081
C	18.5241	25.1371	20.2239
C	7.3079	25.1371	5.6081
C	0.6949	5.6081	18.5241
C	0.6949	20.2239	7.3079
C	25.1371	5.6081	7.3079
C	25.1371	20.2239	18.5241
C	7.3079	18.5241	13.6109
C	18.5241	7.3079	13.6109
C	18.5241	18.5241	12.2211
C	7.3079	7.3079	12.2211
C	0.6949	20.2239	18.5241
C	0.6949	5.6081	7.3079
C	25.1371	5.6081	18.5241
C	25.1371	20.2239	7.3079
C	5.6081	13.6109	20.2239
C	20.2239	13.6109	5.6081
C	5.6081	12.2211	5.6081
C	20.2239	12.2211	20.2239
C	5.6081	20.2239	12.2211
C	20.2239	5.6081	12.2211
C	5.6081	5.6081	13.6109
C	20.2239	20.2239	13.6109
C	7.3079	13.6109	7.3079
C	18.5241	13.6109	18.5241
C	18.5241	12.2211	7.3079
C	7.3079	12.2211	18.5241
C	0.6949	18.5241	5.6081
C	0.6949	7.3079	20.2239
C	25.1371	18.5241	20.2239
C	25.1371	7.3079	5.6081
C	20.2239	5.6081	13.6109
C	5.6081	20.2239	13.6109
C	5.6081	5.6081	12.2211
C	20.2239	20.2239	12.2211
C	13.6109	7.3079	18.5241
C	13.6109	18.5241	7.3079
C	12.2211	18.5241	18.5241
C	12.2211	7.3079	7.3079
C	18.5241	0.6949	20.2239
C	7.3079	0.6949	5.6081
C	18.5241	25.1371	5.6081
C	7.3079	25.1371	20.2239
C	18.5241	7.3079	12.2211
C	7.3079	18.5241	12.2211
C	18.5241	18.5241	13.6109
C	7.3079	7.3079	13.6109
C	20.2239	0.6949	7.3079
C	5.6081	0.6949	18.5241
C	5.6081	25.1371	7.3079
C	20.2239	25.1371	18.5241
C	13.6109	5.6081	5.6081
C	13.6109	20.2239	20.2239
C	12.2211	5.6081	20.2239
C	12.2211	20.2239	5.6081
C	20.2239	18.5241	0.6949
C	5.6081	7.3079	0.6949
C	5.6081	18.5241	25.1371
C	20.2239	7.3079	25.1371
C	13.6109	20.2239	5.6081
C	13.6109	5.6081	20.2239
C	12.2211	5.6081	5.6081
C	12.2211	20.2239	20.2239
C	18.5241	13.6109	7.3079
C	7.3079	13.6109	18.5241
C	18.5241	12.2211	18.5241
C	7.3079	12.2211	7.3079
C	18.5241	20.2239	25.1371
C	7.3079	5.6081	25.1371
C	18.5241	5.6081	0.6949
C	7.3079	20.2239	0.6949
C	20.2239	13.6109	20.2239
C	5.6081	13.6109	5.6081
C	5.6081	12.2211	20.2239
C	20.2239	12.2211	5.6081
C	13.6109	18.5241	18.5241
C	13.6109	7.3079	7.3079
C	12.2211	18.5241	7.3079
C	12.2211	7.3079	18.5241
H	7.8762	5.0398	1.1573
H	17.9558	20.7922	1.1573
H	17.9558	5.0398	24.6747
H	7.8762	20.7922	24.6747
H	1.1573	7.8762	5.0398
H	1.1573	17.9558	20.7922
H	24.6747	17.9558	5.0398
H	24.6747	7.8762	20.7922
H	5.0398	1.1573	7.8762
H	20.7922	1.1573	17.9558
H	5.0398	24.6747	17.9558
H	20.7922	24.6747	7.8762
H	7.8762	17.9558	14.0733
H	17.9558	7.8762	14.0733
H	17.9558	17.9558	11.7587
H	7.8762	7.8762	11.7587
H	1.1573	20.7922	17.9558
H	1.1573	5.0398	7.8762
H	24.6747	5.0398	17.9558
H	24.6747	20.7922	7.8762
H	5.0398	14.0733	20.7922
H	20.7922	14.0733	5.0398
H	5.0398	11.7587	5.0398
H	20.7922	11.7587	20.7922
H	1.1573	17.9558	5.0398
H	1.1573	7.8762	20.7922
H	24.6747	17.9558	20.7922
H	24.6747	7.8762	5.0398
H	20.7922	5.0398	14.0733
H	5.0398	20.7922	14.0733
H	5.0398	5.0398	11.7587
H	20.7922	20.7922	11.7587
H	14.0733	7.8762	17.9558
H	14.0733	17.9558	7.8762
H	11.7587	17.9558	17.9558
H	11.7587	7.8762	7.8762
H	17.9558	1.1573	20.7922
H	7.8762	1.1573	5.0398
H	17.9558	24.6747	5.0398
H	7.8762	24.6747	20.7922
H	17.9558	7.8762	11.7587
H	7.8762	17.9558	11.7587
H	17.9558	17.9558	14.0733
H	7.8762	7.8762	14.0733
H	20.7922	1.1573	7.8762
H	5.0398	1.1573	17.9558
H	5.0398	24.6747	7.8762
H	20.7922	24.6747	17.9558
H	20.7922	17.9558	1.1573
H	5.0398	7.8762	1.1573
H	5.0398	17.9558	24.6747
H	20.7922	7.8762	24.6747
H	14.0733	20.7922	5.0398
H	14.0733	5.0398	20.7922
H	11.7587	5.0398	5.0398
H	11.7587	20.7922	20.7922
H	17.9558	14.0733	7.8762
H	7.8762	14.0733	17.9558
H	17.9558	11.7587	17.9558
H	7.8762	11.7587	7.8762
H	17.9558	20.7922	24.6747
H	7.8762	5.0398	24.6747
H	17.9558	5.0398	1.1573
H	7.8762	20.7922	1.1573
H	20.7922	14.0733	20.7922
H	5.0398	14.0733	5.0398
H	5.0398	11.7587	20.7922
H	20.7922	11.7587	5.0398
H	14.0733	17.9558	17.9558
H	14.0733	7.8762	7.8762
H	11.7587	17.9558	7.8762
H	11.7587	7.8762	17.9558
C	4.6521	8.2638	24.3755
C	3.7528	9.1632	25.2274
H	5.2647	8.9345	23.7354
H	3.9815	7.6513	23.7354
H	4.3653	9.8381	25.8626
H	3.1241	9.7920	24.5621
H	3.0779	8.5509	25.8626
C	21.1799	17.5682	24.3755
C	22.0792	16.6688	25.2274
H	20.5673	16.8975	23.7354
H	21.8505	18.1807	23.7354
H	21.4667	15.9939	25.8626
H	22.7079	16.0400	24.5621
H	22.7541	17.2811	25.8626
C	21.1798	8.2639	1.4565
C	22.0792	9.1632	0.6046
H	21.8505	7.6513	2.0966
H	20.5673	8.9345	2.0966
H	22.7541	8.5507	-0.0306
H	22.7080	9.7919	1.2699
H	21.4669	9.8381	-0.0306
C	4.6522	17.5681	1.4565
C	3.7528	16.6688	0.6046
H	3.9815	18.1807	2.0966
H	5.2647	16.8975	2.0966
H	3.0779	17.2813	-0.0306
H	3.1240	16.0401	1.2699
H	4.3651	15.9939	-0.0306
C	24.3755	4.6521	8.2638
C	25.2274	3.7528	9.1632
H	23.7354	5.2647	8.9345
H	23.7354	3.9815	7.6513
H	25.8626	4.3653	9.8381
H	24.5621	3.1241	9.7920
H	25.8626	3.0779	8.5509
C	24.3755	21.1798	17.5681
C	25.2274	22.0792	16.6688
H	23.7354	21.8505	18.1807
H	23.7354	20.5673	16.8975
H	25.8626	22.7541	17.2813
H	24.5621	22.7080	16.0401
H	25.8626	21.4669	15.9939
C	1.4565	21.1799	8.2638
C	0.6046	22.0792	9.1632
H	2.0966	20.5673	8.9345
H	2.0966	21.8505	7.6513
H	-0.0306	21.4667	9.8381
H	1.2699	22.7079	9.7920
H	-0.0306	22.7541	8.5509
C	1.4565	4.6522	17.5681
C	0.6046	3.7528	16.6688
H	2.0966	3.9815	18.1807
H	2.0966	5.2647	16.8975
H	-0.0306	3.0779	17.2813
H	1.2699	3.1240	16.0401
H	-0.0306	4.3651	15.9939
C	8.2638	24.3755	4.6521
C	9.1632	25.2274	3.7528
H	8.9345	23.7354	5.2647
H	7.6513	23.7354	3.9815
H	9.8381	25.8626	4.3653
H	9.7920	24.5621	3.1241
H	8.5509	25.8626	3.0779
C	17.5682	24.3755	21.1799
C	16.6688	25.2274	22.0792
H	16.8975	23.7354	20.5673
H	18.1807	23.7354	21.8505
H	15.9939	25.8626	21.4667
H	16.0400	24.5621	22.7079
H	17.2811	25.8626	22.7541
C	8.2638	1.4565	21.1799
C	9.1632	0.6046	22.0792
H	8.9345	2.0966	20.5673
H	7.6513	2.0966	21.8505
H	9.8381	-0.0306	21.4667
H	9.7920	1.2699	22.7079
H	8.5509	-0.0306	22.7541
C	17.5681	1.4565	4.6522
C	16.6688	0.6046	3.7528
H	18.1807	2.0966	3.9815
H	16.8975	2.0966	5.2647
H	17.2813	-0.0306	3.0779
H	16.0401	1.2699	3.1240
H	15.9939	-0.0306	4.3651
C	4.6522	21.1799	11.4595
C	3.7528	22.0792	12.3114
H	3.9815	20.5673	10.8194
H	5.2647	21.8505	10.8194
H	3.0779	21.4667	12.9466
H	3.1240	22.7079	11.6461
H	4.3651	22.7541	12.9466
C	21.1799	4.6522	11.4595
C	22.0792	3.7528	12.3114
H	20.5673	3.9815	10.8194
H	21.8505	5.2647	10.8194
H	21.4667	3.0779	12.9466
H	22.7079	3.1240	11.6461
H	22.7541	4.3651	12.9466
C	21.1798	21.1799	14.3725
C	22.0792	22.0792	13.5206
H	21.8505	20.5673	15.0126
H	20.5673	21.8505	15.0126
H	22.7541	21.4667	12.8854
H	22.7080	22.7079	14.1859
H	21.4669	22.7541	12.8854
C	4.6522	4.6521	14.3725
C	3.7528	3.7528	13.5206
H	3.9815	5.2647	15.0126
H	5.2647	3.9815	15.0126
H	3.0779	4.3653	12.8854
H	3.1240	3.1241	14.1859
H	4.3651	3.0779	12.8854
C	8.2638	11.4595	17.5681
C	9.1632	12.3114	16.6688
H	8.9345	10.8194	18.1807
H	7.6513	10.8194	16.8975
H	9.8381	12.9466	17.2813
H	9.7920	11.6461	16.0401
H	8.5509	12.9466	15.9939
C	17.5682	11.4595	8.2639
C	16.6688	12.3114	9.1632
H	16.8975	10.8194	7.6513
H	18.1807	10.8194	8.9345
H	15.9939	12.9466	8.5507
H	16.0400	11.6461	9.7919
H	17.2811	12.9466	9.8381
C	8.2639	14.3725	8.2638
C	9.1632	13.5206	9.1632
H	7.6513	15.0126	8.9345
H	8.9345	15.0126	7.6513
H	8.5507	12.8854	9.8381
H	9.7919	14.1859	9.7920
H	9.8381	12.8854	8.5509
C	17.5682	14.3725	17.5681
C	16.6688	13.5206	16.6688
H	16.8975	15.0126	18.1807
H	18.1807	15.0126	16.8975
H	15.9939	12.8854	17.2813
H	16.0400	14.1859	16.0401
H	17.2811	12.8854	15.9939
C	11.4595	4.6522	21.1799
C	12.3114	3.7528	22.0792
H	10.8194	3.9815	20.5673
H	10.8194	5.2647	21.8505
H	12.9466	3.0779	21.4667
H	11.6461	3.1240	22.7079
H	12.9466	4.3651	22.7541
C	11.4595	21.1799	4.6522
C	12.3114	22.0792	3.7528
H	10.8194	20.5673	3.9815
H	10.8194	21.8505	5.2647
H	12.9466	21.4667	3.0779
H	11.6461	22.7079	3.1240
H	12.9466	22.7541	4.3651
C	14.3725	21.1798	21.1799
C	13.5206	22.0792	22.0792
H	15.0126	21.8505	20.5673
H	15.0126	20.5673	21.8505
H	12.8854	22.7541	21.4667
H	14.1859	22.7080	22.7079
H	12.8854	21.4669	22.7541
C	14.3725	4.6521	4.6522
C	13.5206	3.7528	3.7528
H	15.0126	5.2647	3.9815
H	15.0126	3.9815	5.2647
H	12.8854	4.3653	3.0779
H	14.1859	3.1241	3.1240
H	12.8854	3.0779	4.3651
