472

Zn	7.5786	5.3374	5.3374
Zn	18.2534	20.4946	5.3374
Zn	18.2534	5.3374	20.4946
Zn	7.5786	20.4946	20.4946
Zn	5.3374	7.5786	5.3374
Zn	5.3374	18.2534	20.4946
Zn	20.4946	18.2534	5.3374
Zn	20.4946	7.5786	20.4946
Zn	5.3374	5.3374	7.5786
Zn	20.4946	5.3374	18.2534
Zn	5.3374	20.4946	18.2534
Zn	20.4946	20.4946	7.5786
Zn	5.3374	7.5786	20.4946
Zn	20.4946	18.2534	20.4946
Zn	5.3374	18.2534	5.3374
Zn	20.4946	7.5786	5.3374
Zn	7.5786	5.3374	20.4946
Zn	18.2534	5.3374	5.3374
Zn	18.2534	20.4946	20.4946
Zn	7.5786	20.4946	5.3374
Zn	5.3374	5.3374	18.2534
Zn	5.3374	20.4946	7.5786
Zn	20.4946	5.3374	7.5786
Zn	20.4946	20.4946	18.2534
Zn	7.5786	18.2534	18.2534
Zn	18.2534	7.5786	18.2534
Zn	18.2534	18.2534	7.5786
Zn	7.5786	7.5786	7.5786
Zn	7.5786	18.2534	7.5786
Zn	18.2534	18.2534	18.2534
Zn	18.2534	7.5786	7.5786
Zn	7.5786	7.5786	18.2534
O	6.4580	6.4580	6.4580
O	19.3740	19.3740	6.4580
O	19.3740	6.4580	19.3740
O	6.4580	19.3740	19.3740
O	6.4580	6.4580	19.3740
O	19.3740	19.3740	19.3740
O	6.4580	19.3740	6.4580
O	19.3740	6.4580	6.4580
O	7.2813	5.6347	3.4615
O	18.5507	20.1973	3.4615
O	18.5507	5.6347	22.3705
O	7.2813	20.1973	22.3705
O	3.4615	7.2813	5.6347
O	3.4615	18.5507	20.1973
O	22.3705	18.5507	5.6347
O	22.3705	7.2813	20.1973
O	5.6347	3.4615	7.2813
O	20.1973	3.4615	18.5507
O	5.6347	22.3705	18.5507
O	20.1973	22.3705	7.2813
O	5.6347	7.2813	22.3705
O	20.1973	18.5507	22.3705
O	5.6347	18.5507	3.4615
O	20.1973	7.2813	3.4615
O	7.2813	3.4615	20.1973
O	18.5507	3.4615	5.6347
O	18.5507	22.3705	20.1973
O	7.2813	22.3705	5.6347
O	3.4615	5.6347	18.5507
O	3.4615	20.1973	7.2813
O	22.3705	5.6347	7.2813
O	22.3705	20.1973	18.5507
O	7.2813	18.5507	16.3775
O	18.5507	7.2813	16.3775
O	18.5507	18.5507	9.4545
O	7.2813	7.2813	9.4545
O	3.4615	20.1973	18.5507
O	3.4615	5.6347	7.2813
O	22.3705	5.6347	18.5507
O	22.3705	20.1973	7.2813
O	5.6347	16.3775	20.1973
O	20.1973	16.3775	5.6347
O	5.6347	9.4545	5.6347
O	20.1973	9.4545	20.1973
O	5.6347	20.1973	9.4545
O	20.1973	5.6347	9.4545
O	5.6347	5.6347	16.3775
O	20.1973	20.1973	16.3775
O	7.2813	16.3775	7.2813
O	18.5507	16.3775	18.5507
O	18.5507	9.4545	7.2813
O	7.2813	9.4545	18.5507
O	3.4615	18.5507	5.6347
O	3.4615	7.2813	20.1973
O	22.3705	18.5507	20.1973
O	22.3705	7.2813	5.6347
O	20.1973	5.6347	16.3775
O	5.6347	20.1973	16.3775
O	5.6347	5.6347	9.4545
O	20.1973	20.1973	9.4545
O	16.3775	7.2813	18.5507
O	16.3775	18.5507	7.2813
O	9.4545	18.5507	18.5507
O	9.4545	7.2813	7.2813
O	18.5507	3.4615	20.1973
O	7.2813	3.4615	5.6347
O	18.5507	22.3705	5.6347
O	7.2813	22.3705	20.1973
O	18.5507	7.2813	9.4545
O	7.2813	18.5507	9.4545
O	18.5507	18.5507	16.3775
O	7.2813	7.2813	16.3775
O	20.1973	3.4615	7.2813
O	5.6347	3.4615	18.5507
O	5.6347	22.3705	7.2813
O	20.1973	22.3705	18.5507
O	16.3775	5.6347	5.6347
O	16.3775	20.1973	20.1973
O	9.4545	5.6347	20.1973
O	9.4545	20.1973	5.6347
O	20.1973	18.5507	3.4615
O	5.6347	7.2813	3.4615
O	5.6347	18.5507	22.3705
O	20.1973	7.2813	22.3705
O	16.3775	20.1973	5.6347
O	16.3775	5.6347	20.1973
O	9.4545	5.6347	5.6347
O	9.4545	20.1973	20.1973
O	18.5507	16.3775	7.2813
O	7.2813	16.3775	18.5507
O	18.5507	9.4545	18.5507
O	7.2813	9.4545	7.2813
O	18.5507	20.1973	22.3705
O	7.2813	5.6347	22.3705
O	18.5507	5.6347	3.4615
O	7.2813	20.1973	3.4615
O	20.1973	16.3775	20.1973
O	5.6347	16.3775	5.6347
O	5.6347	9.4545	20.1973
O	20.1973	9.4545	5.6347
O	16.3775	18.5507	18.5507
O	16.3775	7.2813	7.2813
O	9.4545	18.5507	7.2813
O	9.4545	7.2813	18.5507
C	6.4580	6.4580	2.8751
C	19.3740	19.3740	2.8751
C	19.3740	6.4580	22.9569
C	6.4580	19.3740	22.9569
C	2.8751	6.4580	6.4580
C	2.8751	19.3740	19.3740
C	22.9569	19.3740	6.4580
C	22.9569	6.4580	19.3740
C	6.4580	2.8751	6.4580
C	19.3740	2.8751	19.3740
C	6.4580	22.9569	19.3740
C	19.3740	22.9569	6.4580
C	6.4580	6.4580	22.9569
C	19.3740	19.3740	22.9569
C	6.4580	19.3740	2.8751
C	19.3740	6.4580	2.8751
C	6.4580	2.8751	19.3740
C	19.3740	2.8751	6.4580
C	19.3740	22.9569	19.3740
C	6.4580	22.9569	6.4580
C	2.8751	6.4580	19.3740
C	2.8751	19.3740	6.4580
C	22.9569	6.4580	6.4580
C	22.9569	19.3740	19.3740
C	6.4580	19.3740	15.7911
C	19.3740	6.4580	15.7911
C	19.3740	19.3740	10.0409
C	6.4580	6.4580	10.0409
C	6.4580	15.7911	19.3740
C	19.3740	15.7911	6.4580
C	6.4580	10.0409	6.4580
C	19.3740	10.0409	19.3740
C	6.4580	19.3740	10.0409
C	19.3740	6.4580	10.0409
C	6.4580	6.4580	15.7911
C	19.3740	19.3740	15.7911
C	6.4580	15.7911	6.4580
C	19.3740	15.7911	19.3740
C	19.3740	10.0409	6.4580
C	6.4580	10.0409	19.3740
C	15.7911	6.4580	19.3740
C	15.7911	19.3740	6.4580
C	10.0409	19.3740	19.3740
C	10.0409	6.4580	6.4580
C	15.7911	6.4580	6.4580
C	15.7911	19.3740	19.3740
C	10.0409	6.4580	19.3740
C	10.0409	19.3740	6.4580
C	6.4580	6.4580	1.3898
C	19.3740	19.3740	1.3898
C	19.3740	6.4580	24.4422
C	6.4580	19.3740	24.4422
C	1.3898	6.4580	6.4580
C	1.3898	19.3740	19.3740
C	24.4422	19.3740	6.4580
C	24.4422	6.4580	19.3740
C	6.4580	1.3898	6.4580
C	19.3740	1.3898	19.3740
C	6.4580	24.4422	19.3740
C	19.3740	24.4422	6.4580
C	6.4580	6.4580	24.4422
C	19.3740	19.3740	24.4422
C	6.4580	19.3740	1.3898
C	19.3740	6.4580	1.3898
C	6.4580	1.3898	19.3740
C	19.3740	1.3898	6.4580
C	19.3740	24.4422	19.3740
C	6.4580	24.4422	6.4580
C	1.3898	6.4580	19.3740
C	1.3898	19.3740	6.4580
C	24.4422	6.4580	6.4580
C	24.4422	19.3740	19.3740
C	6.4580	19.3740	14.3058
C	19.3740	6.4580	14.3058
C	19.3740	19.3740	11.5262
C	6.4580	6.4580	11.5262
C	6.4580	14.3058	19.3740
C	19.3740	14.3058	6.4580
C	6.4580	11.5262	6.4580
C	19.3740	11.5262	19.3740
C	6.4580	19.3740	11.5262
C	19.3740	6.4580	11.5262
C	6.4580	6.4580	14.3058
C	19.3740	19.3740	14.3058
C	6.4580	14.3058	6.4580
C	19.3740	14.3058	19.3740
C	19.3740	11.5262	6.4580
C	6.4580	11.5262	19.3740
C	14.3058	6.4580	19.3740
C	14.3058	19.3740	6.4580
C	11.5262	19.3740	19.3740
C	11.5262	6.4580	6.4580
C	14.3058	6.4580	6.4580
C	14.3058	19.3740	19.3740
C	11.5262	6.4580	19.3740
C	11.5262	19.3740	6.4580
C	7.3079	5.6081	0.6949
C	18.5241	20.2239	0.6949
C	18.5241	5.6081	25.1371
C	7.3079	20.2239	25.1371
C	0.6949	7.3079	5.6081
C	0.6949	18.5241	20.2239
C	25.1371	18.5241	5.6081
C	25.1371	7.3079	20.2239
C	5.6081	0.6949	7.3079
C	20.2239	0.6949	18.5241
C	5.6081	25.1371	18.5241
C	20.2239	25.1371	7.3079
C	5.6081	7.3079	25.1371
C	20.2239	18.5241	25.1371
C	5.6081	18.5241	0.6949
C	20.2239	7.3079	0.6949
C	7.3079	0.6949	20.2239
C	18.5241	0.6949	5.6081
C	18.5241	25.1371	20.2239
C	7.3079	25.1371	5.6081
C	0.6949	5.6081	18.5241
C	0.6949	20.2239	7.3079
C	25.1371	5.6081	7.3079
C	25.1371	20.2239	18.5241
C	7.3079	18.5241	13.6109
C	18.5241	7.3079	13.6109
C	18.5241	18.5241	12.2211
C	7.3079	7.3079	12.2211
C	0.6949	20.2239	18.5241
C	0.6949	5.6081	7.3079
C	25.1371	5.6081	18.5241
C	25.1371	20.2239	7.3079
C	5.6081	13.6109	20.2239
C	20.2239	13.6109	5.6081
C	5.6081	12.2211	5.6081
C	20.2239	12.2211	20.2239
C	5.6081	20.2239	12.2211
C	20.2239	5.6081	12.2211
C	5.6081	5.6081	13.6109
C	20.2239	20.2239	13.6109
C	7.3079	13.6109	7.3079
C	18.5241	13.6109	18.5241
C	18.5241	12.2211	7.3079
C	7.3079	12.2211	18.5241
C	0.6949	18.5241	5.6081
C	0.6949	7.3079	20.2239
C	25.1371	18.5241	20.2239
C	25.1371	7.3079	5.6081
C	20.2239	5.6081	13.6109
C	5.6081	20.2239	13.6109
C	5.6081	5.6081	12.2211
C	20.2239	20.2239	12.2211
C	13.6109	7.3079	18.5241
C	13.6109	18.5241	7.3079
C	12.2211	18.5241	18.5241
C	12.2211	7.3079	7.3079
C	18.5241	0.6949	20.2239
C	7.3079	0.6949	5.6081
C	18.5241	25.1371	5.6081
C	7.3079	25.1371	20.2239
C	18.5241	7.3079	12.2211
C	7.3079	18.5241	12.2211
C	18.5241	18.5241	13.6109
C	7.3079	7.3079	13.6109
C	20.2239	0.6949	7.3079
C	5.6081	0.6949	18.5241
C	5.6081	25.1371	7.3079
C	20.2239	25.1371	18.5241
C	13.6109	5.6081	5.6081
C	13.6109	20.2239	20.2239
C	12.2211	5.6081	20.2239
C	12.2211	20.2239	5.6081
C	20.2239	18.5241	0.6949
C	5.6081	7.3079	0.6949
C	5.6081	18.5241	25.1371
C	20.2239	7.3079	25.1371
C	13.6109	20.2239	5.6081
C	13.6109	5.6081	20.2239
C	12.2211	5.6081	5.6081
C	12.2211	20.2239	20.2239
C	18.5241	13.6109	7.3079
C	7.3079	13.6109	18.5241
C	18.5241	12.2211	18.5241
C	7.3079	12.2211	7.3079
C	18.5241	20.2239	25.1371
C	7.3079	5.6081	25.1371
C	18.5241	5.6081	0.6949
C	7.3079	20.2239	0.6949
C	20.2239	13.6109	20.2239
C	5.6081	13.6109	5.6081
C	5.6081	12.2211	20.2239
C	20.2239	12.2211	5.6081
C	13.6109	18.5241	18.5241
C	13.6109	7.3079	7.3079
C	12.2211	18.5241	7.3079
C	12.2211	7.3079	18.5241
H	7.8762	5.0398	1.1573
H	17.9558	20.7922	1.1573
H	17.9558	5.0398	24.6747
H	7.8762	20.7922	24.6747
H	1.1573	7.8762	5.0398
H	1.1573	17.9558	20.7922
H	24.6747	17.9558	5.0398
H	24.6747	7.8762	20.7922
H	5.0398	1.1573	7.8762
H	20.7922	1.1573	17.9558
H	5.0398	24.6747	17.9558
H	20.7922	24.6747	7.8762
H	7.8762	17.9558	14.0733
H	17.9558	7.8762	14.0733
H	17.9558	17.9558	11.7587
H	7.8762	7.8762	11.7587
H	1.1573	20.7922	17.9558
H	1.1573	5.0398	7.8762
H	24.6747	5.0398	17.9558
H	24.6747	20.7922	7.8762
H	5.0398	14.0733	20.7922
H	20.7922	14.0733	5.0398
H	5.0398	11.7587	5.0398
H	20.7922	11.7587	20.7922
H	1.1573	17.9558	5.0398
H	1.1573	7.8762	20.7922
H	24.6747	17.9558	20.7922
H	24.6747	7.8762	5.0398
H	20.7922	5.0398	14.0733
H	5.0398	20.7922	14.0733
H	5.0398	5.0398	11.7587
H	20.7922	20.7922	11.7587
H	14.0733	7.8762	17.9558
H	14.0733	17.9558	7.8762
H	11.7587	17.9558	17.9558
H	11.7587	7.8762	7.8762
H	17.9558	1.1573	20.7922
H	7.8762	1.1573	5.0398
H	17.9558	24.6747	5.0398
H	7.8762	24.6747	20.7922
H	17.9558	7.8762	11.7587
H	7.8762	17.9558	11.7587
H	17.9558	17.9558	14.0733
H	7.8762	7.8762	14.0733
H	20.7922	1.1573	7.8762
H	5.0398	1.1573	17.9558
H	5.0398	24.6747	7.8762
H	20.7922	24.6747	17.9558
H	20.7922	17.9558	1.1573
H	5.0398	7.8762	1.1573
H	5.0398	17.9558	24.6747
H	20.7922	7.8762	24.6747
H	14.0733	20.7922	5.0398
H	14.0733	5.0398	20.7922
H	11.7587	5.0398	5.0398
H	11.7587	20.7922	20.7922
H	17.9558	14.0733	7.8762
H	7.8762	14.0733	17.9558
H	17.9558	11.7587	17.9558
H	7.8762	11.7587	7.8762
H	17.9558	20.7922	24.6747
H	7.8762	5.0398	24.6747
H	17.9558	5.0398	1.1573
H	7.8762	20.7922	1.1573
H	20.7922	14.0733	20.7922
H	5.0398	14.0733	5.0398
H	5.0398	11.7587	20.7922
H	20.7922	11.7587	5.0398
H	14.0733	17.9558	17.9558
H	14.0733	7.8762	7.8762
H	11.7587	17.9558	7.8762
H	11.7587	7.8762	17.9558
N	4.6915	8.2245	24.4978
H	4.0859	8.8300	25.0715
H	4.6001	8.3159	23.4850
N	21.1405	17.6075	24.4978
H	21.7460	17.0019	25.0715
H	21.2319	17.5161	23.4850
N	21.1405	8.2245	1.3342
H	21.7461	8.8300	0.7605
H	21.2319	8.3159	2.3470
N	4.6915	17.6075	1.3342
H	4.0859	17.0020	0.7605
H	4.6001	17.5161	2.3470
N	24.4978	4.6915	8.2245
H	25.0715	4.0860	8.8301
H	23.4850	4.6001	8.3159
N	24.4978	21.1405	17.6075
H	25.0715	21.7461	17.0020
H	23.4850	21.2319	17.5161
N	1.3342	21.1405	8.2245
H	0.7605	21.7460	8.8301
H	2.3470	21.2319	8.3159
N	1.3342	4.6915	17.6075
H	0.7605	4.0860	17.0019
H	2.3470	4.6001	17.5161
N	8.2245	24.4978	4.6915
H	8.8300	25.0715	4.0859
H	8.3159	23.4850	4.6001
N	17.6075	24.4978	21.1405
H	17.0019	25.0715	21.7460
H	17.5161	23.4850	21.2319
N	8.2245	1.3342	21.1405
H	8.8300	0.7605	21.7461
H	8.3159	2.3470	21.2319
N	17.6075	1.3342	4.6915
H	17.0019	0.7605	4.0860
H	17.5161	2.3470	4.6001
N	4.6915	21.1405	11.5818
H	4.0860	21.7461	12.1555
H	4.6001	21.2319	10.5690
N	21.1405	4.6915	11.5818
H	21.7460	4.0859	12.1555
H	21.2319	4.6001	10.5690
N	21.1405	21.1405	14.2502
H	21.7460	21.7461	13.6765
H	21.2319	21.2319	15.2630
N	4.6915	4.6915	14.2502
H	4.0859	4.0860	13.6765
H	4.6001	4.6001	15.2630
N	8.2245	11.5818	17.6075
H	8.8300	12.1555	17.0019
H	8.3159	10.5690	17.5161
N	17.6075	11.5818	8.2245
H	17.0019	12.1555	8.8300
H	17.5161	10.5690	8.3159
N	8.2245	14.2502	8.2245
H	8.8300	13.6765	8.8301
H	8.3159	15.2630	8.3159
N	17.6075	14.2502	17.6075
H	17.0019	13.6765	17.0020
H	17.5161	15.2630	17.5161
N	11.5818	4.6915	21.1405
H	12.1555	4.0860	21.7461
H	10.5690	4.6001	21.2319
N	11.5818	21.1405	4.6915
H	12.1555	21.7460	4.0859
H	10.5690	21.2319	4.6001
N	14.2502	21.1405	21.1405
H	13.6765	21.7461	21.7460
H	15.2630	21.2319	21.2319
N	14.2502	4.6915	4.6915
H	13.6765	4.0860	4.0859
H	15.2630	4.6001	4.6001
