640

Zn	7.5786	5.3374	5.3374
Zn	18.2534	20.4946	5.3374
Zn	18.2534	5.3374	20.4946
Zn	7.5786	20.4946	20.4946
Zn	5.3374	7.5786	5.3374
Zn	5.3374	18.2534	20.4946
Zn	20.4946	18.2534	5.3374
Zn	20.4946	7.5786	20.4946
Zn	5.3374	5.3374	7.5786
Zn	20.4946	5.3374	18.2534
Zn	5.3374	20.4946	18.2534
Zn	20.4946	20.4946	7.5786
Zn	5.3374	7.5786	20.4946
Zn	20.4946	18.2534	20.4946
Zn	5.3374	18.2534	5.3374
Zn	20.4946	7.5786	5.3374
Zn	7.5786	5.3374	20.4946
Zn	18.2534	5.3374	5.3374
Zn	18.2534	20.4946	20.4946
Zn	7.5786	20.4946	5.3374
Zn	5.3374	5.3374	18.2534
Zn	5.3374	20.4946	7.5786
Zn	20.4946	5.3374	7.5786
Zn	20.4946	20.4946	18.2534
Zn	7.5786	18.2534	18.2534
Zn	18.2534	7.5786	18.2534
Zn	18.2534	18.2534	7.5786
Zn	7.5786	7.5786	7.5786
Zn	7.5786	18.2534	7.5786
Zn	18.2534	18.2534	18.2534
Zn	18.2534	7.5786	7.5786
Zn	7.5786	7.5786	18.2534
O	6.4580	6.4580	6.4580
O	19.3740	19.3740	6.4580
O	19.3740	6.4580	19.3740
O	6.4580	19.3740	19.3740
O	6.4580	6.4580	19.3740
O	19.3740	19.3740	19.3740
O	6.4580	19.3740	6.4580
O	19.3740	6.4580	6.4580
O	7.2813	5.6347	3.4615
O	18.5507	20.1973	3.4615
O	18.5507	5.6347	22.3705
O	7.2813	20.1973	22.3705
O	3.4615	7.2813	5.6347
O	3.4615	18.5507	20.1973
O	22.3705	18.5507	5.6347
O	22.3705	7.2813	20.1973
O	5.6347	3.4615	7.2813
O	20.1973	3.4615	18.5507
O	5.6347	22.3705	18.5507
O	20.1973	22.3705	7.2813
O	5.6347	7.2813	22.3705
O	20.1973	18.5507	22.3705
O	5.6347	18.5507	3.4615
O	20.1973	7.2813	3.4615
O	7.2813	3.4615	20.1973
O	18.5507	3.4615	5.6347
O	18.5507	22.3705	20.1973
O	7.2813	22.3705	5.6347
O	3.4615	5.6347	18.5507
O	3.4615	20.1973	7.2813
O	22.3705	5.6347	7.2813
O	22.3705	20.1973	18.5507
O	7.2813	18.5507	16.3775
O	18.5507	7.2813	16.3775
O	18.5507	18.5507	9.4545
O	7.2813	7.2813	9.4545
O	3.4615	20.1973	18.5507
O	3.4615	5.6347	7.2813
O	22.3705	5.6347	18.5507
O	22.3705	20.1973	7.2813
O	5.6347	16.3775	20.1973
O	20.1973	16.3775	5.6347
O	5.6347	9.4545	5.6347
O	20.1973	9.4545	20.1973
O	5.6347	20.1973	9.4545
O	20.1973	5.6347	9.4545
O	5.6347	5.6347	16.3775
O	20.1973	20.1973	16.3775
O	7.2813	16.3775	7.2813
O	18.5507	16.3775	18.5507
O	18.5507	9.4545	7.2813
O	7.2813	9.4545	18.5507
O	3.4615	18.5507	5.6347
O	3.4615	7.2813	20.1973
O	22.3705	18.5507	20.1973
O	22.3705	7.2813	5.6347
O	20.1973	5.6347	16.3775
O	5.6347	20.1973	16.3775
O	5.6347	5.6347	9.4545
O	20.1973	20.1973	9.4545
O	16.3775	7.2813	18.5507
O	16.3775	18.5507	7.2813
O	9.4545	18.5507	18.5507
O	9.4545	7.2813	7.2813
O	18.5507	3.4615	20.1973
O	7.2813	3.4615	5.6347
O	18.5507	22.3705	5.6347
O	7.2813	22.3705	20.1973
O	18.5507	7.2813	9.4545
O	7.2813	18.5507	9.4545
O	18.5507	18.5507	16.3775
O	7.2813	7.2813	16.3775
O	20.1973	3.4615	7.2813
O	5.6347	3.4615	18.5507
O	5.6347	22.3705	7.2813
O	20.1973	22.3705	18.5507
O	16.3775	5.6347	5.6347
O	16.3775	20.1973	20.1973
O	9.4545	5.6347	20.1973
O	9.4545	20.1973	5.6347
O	20.1973	18.5507	3.4615
O	5.6347	7.2813	3.4615
O	5.6347	18.5507	22.3705
O	20.1973	7.2813	22.3705
O	16.3775	20.1973	5.6347
O	16.3775	5.6347	20.1973
O	9.4545	5.6347	5.6347
O	9.4545	20.1973	20.1973
O	18.5507	16.3775	7.2813
O	7.2813	16.3775	18.5507
O	18.5507	9.4545	18.5507
O	7.2813	9.4545	7.2813
O	18.5507	20.1973	22.3705
O	7.2813	5.6347	22.3705
O	18.5507	5.6347	3.4615
O	7.2813	20.1973	3.4615
O	20.1973	16.3775	20.1973
O	5.6347	16.3775	5.6347
O	5.6347	9.4545	20.1973
O	20.1973	9.4545	5.6347
O	16.3775	18.5507	18.5507
O	16.3775	7.2813	7.2813
O	9.4545	18.5507	7.2813
O	9.4545	7.2813	18.5507
C	6.4580	6.4580	2.8751
C	19.3740	19.3740	2.8751
C	19.3740	6.4580	22.9569
C	6.4580	19.3740	22.9569
C	2.8751	6.4580	6.4580
C	2.8751	19.3740	19.3740
C	22.9569	19.3740	6.4580
C	22.9569	6.4580	19.3740
C	6.4580	2.8751	6.4580
C	19.3740	2.8751	19.3740
C	6.4580	22.9569	19.3740
C	19.3740	22.9569	6.4580
C	6.4580	6.4580	22.9569
C	19.3740	19.3740	22.9569
C	6.4580	19.3740	2.8751
C	19.3740	6.4580	2.8751
C	6.4580	2.8751	19.3740
C	19.3740	2.8751	6.4580
C	19.3740	22.9569	19.3740
C	6.4580	22.9569	6.4580
C	2.8751	6.4580	19.3740
C	2.8751	19.3740	6.4580
C	22.9569	6.4580	6.4580
C	22.9569	19.3740	19.3740
C	6.4580	19.3740	15.7911
C	19.3740	6.4580	15.7911
C	19.3740	19.3740	10.0409
C	6.4580	6.4580	10.0409
C	6.4580	15.7911	19.3740
C	19.3740	15.7911	6.4580
C	6.4580	10.0409	6.4580
C	19.3740	10.0409	19.3740
C	6.4580	19.3740	10.0409
C	19.3740	6.4580	10.0409
C	6.4580	6.4580	15.7911
C	19.3740	19.3740	15.7911
C	6.4580	15.7911	6.4580
C	19.3740	15.7911	19.3740
C	19.3740	10.0409	6.4580
C	6.4580	10.0409	19.3740
C	15.7911	6.4580	19.3740
C	15.7911	19.3740	6.4580
C	10.0409	19.3740	19.3740
C	10.0409	6.4580	6.4580
C	15.7911	6.4580	6.4580
C	15.7911	19.3740	19.3740
C	10.0409	6.4580	19.3740
C	10.0409	19.3740	6.4580
C	6.4580	6.4580	1.3898
C	19.3740	19.3740	1.3898
C	19.3740	6.4580	24.4422
C	6.4580	19.3740	24.4422
C	1.3898	6.4580	6.4580
C	1.3898	19.3740	19.3740
C	24.4422	19.3740	6.4580
C	24.4422	6.4580	19.3740
C	6.4580	1.3898	6.4580
C	19.3740	1.3898	19.3740
C	6.4580	24.4422	19.3740
C	19.3740	24.4422	6.4580
C	6.4580	6.4580	24.4422
C	19.3740	19.3740	24.4422
C	6.4580	19.3740	1.3898
C	19.3740	6.4580	1.3898
C	6.4580	1.3898	19.3740
C	19.3740	1.3898	6.4580
C	19.3740	24.4422	19.3740
C	6.4580	24.4422	6.4580
C	1.3898	6.4580	19.3740
C	1.3898	19.3740	6.4580
C	24.4422	6.4580	6.4580
C	24.4422	19.3740	19.3740
C	6.4580	19.3740	14.3058
C	19.3740	6.4580	14.3058
C	19.3740	19.3740	11.5262
C	6.4580	6.4580	11.5262
C	6.4580	14.3058	19.3740
C	19.3740	14.3058	6.4580
C	6.4580	11.5262	6.4580
C	19.3740	11.5262	19.3740
C	6.4580	19.3740	11.5262
C	19.3740	6.4580	11.5262
C	6.4580	6.4580	14.3058
C	19.3740	19.3740	14.3058
C	6.4580	14.3058	6.4580
C	19.3740	14.3058	19.3740
C	19.3740	11.5262	6.4580
C	6.4580	11.5262	19.3740
C	14.3058	6.4580	19.3740
C	14.3058	19.3740	6.4580
C	11.5262	19.3740	19.3740
C	11.5262	6.4580	6.4580
C	14.3058	6.4580	6.4580
C	14.3058	19.3740	19.3740
C	11.5262	6.4580	19.3740
C	11.5262	19.3740	6.4580
C	7.3079	5.6081	0.6949
C	18.5241	20.2239	0.6949
C	18.5241	5.6081	25.1371
C	7.3079	20.2239	25.1371
C	0.6949	7.3079	5.6081
C	0.6949	18.5241	20.2239
C	25.1371	18.5241	5.6081
C	25.1371	7.3079	20.2239
C	5.6081	0.6949	7.3079
C	20.2239	0.6949	18.5241
C	5.6081	25.1371	18.5241
C	20.2239	25.1371	7.3079
C	5.6081	7.3079	25.1371
C	20.2239	18.5241	25.1371
C	5.6081	18.5241	0.6949
C	20.2239	7.3079	0.6949
C	7.3079	0.6949	20.2239
C	18.5241	0.6949	5.6081
C	18.5241	25.1371	20.2239
C	7.3079	25.1371	5.6081
C	0.6949	5.6081	18.5241
C	0.6949	20.2239	7.3079
C	25.1371	5.6081	7.3079
C	25.1371	20.2239	18.5241
C	7.3079	18.5241	13.6109
C	18.5241	7.3079	13.6109
C	18.5241	18.5241	12.2211
C	7.3079	7.3079	12.2211
C	0.6949	20.2239	18.5241
C	0.6949	5.6081	7.3079
C	25.1371	5.6081	18.5241
C	25.1371	20.2239	7.3079
C	5.6081	13.6109	20.2239
C	20.2239	13.6109	5.6081
C	5.6081	12.2211	5.6081
C	20.2239	12.2211	20.2239
C	5.6081	20.2239	12.2211
C	20.2239	5.6081	12.2211
C	5.6081	5.6081	13.6109
C	20.2239	20.2239	13.6109
C	7.3079	13.6109	7.3079
C	18.5241	13.6109	18.5241
C	18.5241	12.2211	7.3079
C	7.3079	12.2211	18.5241
C	0.6949	18.5241	5.6081
C	0.6949	7.3079	20.2239
C	25.1371	18.5241	20.2239
C	25.1371	7.3079	5.6081
C	20.2239	5.6081	13.6109
C	5.6081	20.2239	13.6109
C	5.6081	5.6081	12.2211
C	20.2239	20.2239	12.2211
C	13.6109	7.3079	18.5241
C	13.6109	18.5241	7.3079
C	12.2211	18.5241	18.5241
C	12.2211	7.3079	7.3079
C	18.5241	0.6949	20.2239
C	7.3079	0.6949	5.6081
C	18.5241	25.1371	5.6081
C	7.3079	25.1371	20.2239
C	18.5241	7.3079	12.2211
C	7.3079	18.5241	12.2211
C	18.5241	18.5241	13.6109
C	7.3079	7.3079	13.6109
C	20.2239	0.6949	7.3079
C	5.6081	0.6949	18.5241
C	5.6081	25.1371	7.3079
C	20.2239	25.1371	18.5241
C	13.6109	5.6081	5.6081
C	13.6109	20.2239	20.2239
C	12.2211	5.6081	20.2239
C	12.2211	20.2239	5.6081
C	20.2239	18.5241	0.6949
C	5.6081	7.3079	0.6949
C	5.6081	18.5241	25.1371
C	20.2239	7.3079	25.1371
C	13.6109	20.2239	5.6081
C	13.6109	5.6081	20.2239
C	12.2211	5.6081	5.6081
C	12.2211	20.2239	20.2239
C	18.5241	13.6109	7.3079
C	7.3079	13.6109	18.5241
C	18.5241	12.2211	18.5241
C	7.3079	12.2211	7.3079
C	18.5241	20.2239	25.1371
C	7.3079	5.6081	25.1371
C	18.5241	5.6081	0.6949
C	7.3079	20.2239	0.6949
C	20.2239	13.6109	20.2239
C	5.6081	13.6109	5.6081
C	5.6081	12.2211	20.2239
C	20.2239	12.2211	5.6081
C	13.6109	18.5241	18.5241
C	13.6109	7.3079	7.3079
C	12.2211	18.5241	7.3079
C	12.2211	7.3079	18.5241
H	7.8762	5.0398	1.1573
H	17.9558	20.7922	1.1573
H	17.9558	5.0398	24.6747
H	7.8762	20.7922	24.6747
H	1.1573	7.8762	5.0398
H	1.1573	17.9558	20.7922
H	24.6747	17.9558	5.0398
H	24.6747	7.8762	20.7922
H	5.0398	1.1573	7.8762
H	20.7922	1.1573	17.9558
H	5.0398	24.6747	17.9558
H	20.7922	24.6747	7.8762
H	20.7922	17.9558	24.6747
H	5.0398	17.9558	1.1573
H	17.9558	1.1573	5.0398
H	17.9558	24.6747	20.7922
H	7.8762	24.6747	5.0398
H	1.1573	5.0398	17.9558
H	1.1573	20.7922	7.8762
H	24.6747	5.0398	7.8762
H	24.6747	20.7922	17.9558
H	7.8762	17.9558	14.0733
H	17.9558	7.8762	14.0733
H	17.9558	17.9558	11.7587
H	7.8762	7.8762	11.7587
H	1.1573	20.7922	17.9558
H	1.1573	5.0398	7.8762
H	24.6747	5.0398	17.9558
H	24.6747	20.7922	7.8762
H	5.0398	14.0733	20.7922
H	20.7922	14.0733	5.0398
H	5.0398	11.7587	5.0398
H	20.7922	11.7587	20.7922
H	20.7922	20.7922	14.0733
H	7.8762	14.0733	7.8762
H	17.9558	14.0733	17.9558
H	20.7922	5.0398	14.0733
H	5.0398	20.7922	14.0733
H	5.0398	5.0398	11.7587
H	20.7922	20.7922	11.7587
H	14.0733	7.8762	17.9558
H	14.0733	17.9558	7.8762
H	11.7587	17.9558	17.9558
H	11.7587	7.8762	7.8762
H	17.9558	1.1573	20.7922
H	7.8762	1.1573	5.0398
H	17.9558	24.6747	5.0398
H	7.8762	24.6747	20.7922
H	17.9558	7.8762	11.7587
H	7.8762	17.9558	11.7587
H	7.8762	7.8762	14.0733
H	5.0398	1.1573	17.9558
H	11.7587	5.0398	20.7922
H	11.7587	20.7922	5.0398
H	20.7922	17.9558	1.1573
H	5.0398	7.8762	1.1573
H	5.0398	17.9558	24.6747
H	20.7922	7.8762	24.6747
H	14.0733	20.7922	5.0398
H	14.0733	5.0398	20.7922
H	11.7587	5.0398	5.0398
H	11.7587	20.7922	20.7922
H	17.9558	14.0733	7.8762
H	7.8762	14.0733	17.9558
H	17.9558	11.7587	17.9558
H	7.8762	11.7587	7.8762
H	7.8762	5.0398	24.6747
H	17.9558	5.0398	1.1573
H	5.0398	11.7587	20.7922
H	20.7922	11.7587	5.0398
H	14.0733	17.9558	17.9558
H	14.0733	7.8762	7.8762
C	4.6521	8.2639	24.3744
C	3.7488	9.1673	25.2315
H	5.2725	8.9285	23.7345
H	3.9875	7.6435	23.7346
C	2.8644	10.0517	24.3559
H	3.0905	8.5414	25.8726
H	4.3747	9.8256	25.8726
H	2.2088	9.4269	23.7125
H	2.2245	10.6916	24.9993
H	3.4892	10.7072	23.7125
C	17.5681	21.1799	24.3744
C	16.6648	22.0833	25.2315
H	18.1885	21.8445	23.7345
H	16.9035	20.5595	23.7346
C	15.7804	22.9677	24.3559
H	16.0065	21.4574	25.8726
H	17.2907	22.7416	25.8726
H	15.1248	22.3429	23.7125
H	15.1405	23.6076	24.9993
H	16.4052	23.6232	23.7125
C	21.1799	8.2639	1.4576
C	22.0833	9.1672	0.6005
H	21.8445	7.6435	2.0975
H	20.5595	8.9285	2.0974
C	22.9677	10.0516	1.4761
H	21.4574	9.8255	-0.0406
H	22.7416	8.5413	-0.0406
H	22.3429	10.7072	2.1195
H	23.6076	10.6915	0.8327
H	23.6232	9.4268	2.1195
C	8.2639	21.1799	1.4576
C	9.1672	22.0833	0.6005
H	7.6435	21.8445	2.0975
H	8.9285	20.5595	2.0974
C	10.0516	22.9677	1.4761
H	9.8255	21.4574	-0.0406
H	8.5413	22.7416	-0.0406
H	10.7072	22.3429	2.1195
H	10.6915	23.6076	0.8327
H	9.4268	23.6232	2.1195
C	24.3744	8.2639	4.6521
C	25.2315	9.1672	3.7487
H	23.7345	7.6435	3.9875
H	23.7346	8.9285	5.2725
C	24.3559	10.0516	2.8643
H	25.8726	9.8255	4.3746
H	25.8726	8.5413	3.0904
H	23.7125	10.7072	3.4891
H	24.9993	10.6915	2.2244
H	23.7125	9.4268	2.2088
C	24.3744	17.5681	21.1799
C	25.2315	16.6648	22.0833
H	23.7345	18.1885	21.8445
H	23.7346	16.9035	20.5595
C	24.3559	15.7804	22.9677
H	25.8726	16.0065	21.4574
H	25.8726	17.2907	22.7416
H	23.7125	15.1248	22.3429
H	24.9993	15.1405	23.6076
H	23.7125	16.4052	23.6232
C	1.4576	17.5681	4.6521
C	0.6005	16.6648	3.7487
H	2.0975	18.1885	3.9875
H	2.0974	16.9035	5.2725
C	1.4761	15.7804	2.8643
H	-0.0406	16.0065	4.3746
H	-0.0406	17.2907	3.0904
H	2.1195	15.1248	3.4891
H	0.8327	15.1405	2.2244
H	2.1195	16.4052	2.2088
C	1.4576	8.2639	21.1799
C	0.6005	9.1673	22.0832
H	2.0975	8.9285	20.5595
H	2.0974	7.6435	21.8445
C	1.4761	10.0517	22.9676
H	-0.0406	8.5414	22.7415
H	-0.0406	9.8256	21.4573
H	2.1195	9.4269	23.6232
H	0.8327	10.6916	23.6075
H	2.1195	10.7072	22.3428
C	4.6521	24.3744	8.2639
C	3.7487	25.2315	9.1672
H	3.9875	23.7345	7.6435
H	5.2725	23.7346	8.9285
C	2.8643	24.3559	10.0516
H	4.3746	25.8726	9.8255
H	3.0904	25.8726	8.5413
H	3.4891	23.7125	10.7072
H	2.2244	24.9993	10.6915
H	2.2088	23.7125	9.4268
C	21.1799	24.3744	17.5681
C	22.0833	25.2315	16.6648
H	21.8445	23.7345	18.1885
H	20.5595	23.7346	16.9035
C	22.9677	24.3559	15.7804
H	21.4574	25.8726	16.0065
H	22.7416	25.8726	17.2907
H	22.3429	23.7125	15.1248
H	23.6076	24.9993	15.1405
H	23.6232	23.7125	16.4052
C	8.2639	1.4576	21.1799
C	9.1672	0.6005	22.0833
H	7.6435	2.0975	21.8445
H	8.9285	2.0974	20.5595
C	10.0516	1.4761	22.9677
H	9.8255	-0.0406	21.4574
H	8.5413	-0.0406	22.7416
H	10.7072	2.1195	22.3429
H	10.6915	0.8327	23.6076
H	9.4268	2.1195	23.6232
C	21.1799	1.4576	8.2639
C	22.0833	0.6005	9.1672
H	21.8445	2.0975	7.6435
H	20.5595	2.0974	8.9285
C	22.9677	1.4761	10.0516
H	21.4574	-0.0406	9.8255
H	22.7416	-0.0406	8.5413
H	22.3429	2.1195	10.7072
H	23.6076	0.8327	10.6915
H	23.6232	2.1195	9.4268
C	4.6521	21.1799	11.4584
C	3.7488	22.0833	12.3155
H	5.2725	21.8445	10.8185
H	3.9875	20.5595	10.8186
C	2.8644	22.9677	11.4399
H	3.0905	21.4574	12.9566
H	4.3747	22.7416	12.9566
H	2.2088	22.3429	10.7965
H	2.2245	23.6076	12.0833
H	3.4892	23.6232	10.7965
C	21.1799	4.6521	11.4584
C	22.0832	3.7487	12.3155
H	20.5595	3.9875	10.8185
H	21.8445	5.2725	10.8186
C	22.9676	2.8643	11.4399
H	22.7415	4.3746	12.9566
H	21.4573	3.0904	12.9566
H	23.6232	3.4891	10.7965
H	23.6075	2.2244	12.0833
H	22.3428	2.2088	10.7965
C	17.5681	17.5681	14.3736
C	16.6648	16.6647	13.5165
H	18.1885	16.9035	15.0135
H	16.9035	18.1885	15.0134
C	15.7804	15.7803	14.3921
H	16.0065	17.2906	12.8754
H	17.2907	16.0064	12.8754
H	15.1248	16.4051	15.0355
H	15.1405	15.1404	13.7487
H	16.4052	15.1248	15.0355
C	4.6521	4.6521	14.3736
C	3.7488	3.7487	13.5165
H	5.2725	3.9875	15.0135
H	3.9875	5.2725	15.0134
C	2.8644	2.8643	14.3921
H	3.0905	4.3746	12.8754
H	4.3747	3.0904	12.8754
H	2.2088	3.4891	15.0355
H	2.2245	2.2244	13.7487
H	3.4892	2.2088	15.0355
C	8.2639	11.4584	17.5681
C	9.1672	12.3155	16.6647
H	7.6435	10.8185	16.9035
H	8.9285	10.8186	18.1885
C	10.0516	11.4399	15.7803
H	9.8255	12.9566	17.2906
H	8.5413	12.9566	16.0064
H	10.7072	10.7965	16.4051
H	10.6915	12.0833	15.1404
H	9.4268	10.7965	15.1248
C	17.5681	11.4584	8.2639
C	16.6647	12.3155	9.1672
H	16.9035	10.8185	7.6435
H	18.1885	10.8186	8.9285
C	15.7803	11.4399	10.0516
H	17.2906	12.9566	9.8255
H	16.0064	12.9566	8.5413
H	16.4051	10.7965	10.7072
H	15.1404	12.0833	10.6915
H	15.1248	10.7965	9.4268
C	4.6521	14.3736	4.6521
C	3.7487	13.5165	3.7488
H	3.9875	15.0135	5.2725
H	5.2725	15.0134	3.9875
C	2.8643	14.3921	2.8644
H	4.3746	12.8754	3.0905
H	3.0904	12.8754	4.3747
H	3.4891	15.0355	2.2088
H	2.2244	13.7487	2.2245
H	2.2088	15.0355	3.4892
C	21.1799	14.3736	21.1799
C	22.0833	13.5165	22.0832
H	21.8445	15.0135	20.5595
H	20.5595	15.0134	21.8445
C	22.9677	14.3921	22.9676
H	21.4574	12.8754	22.7415
H	22.7416	12.8754	21.4573
H	22.3429	15.0355	23.6232
H	23.6076	13.7487	23.6075
H	23.6232	15.0355	22.3428
C	11.4584	8.2639	17.5681
C	12.3155	9.1672	16.6647
H	10.8185	7.6435	16.9035
H	10.8186	8.9285	18.1885
C	11.4399	10.0516	15.7803
H	12.9566	9.8255	17.2906
H	12.9566	8.5413	16.0064
H	10.7965	10.7072	16.4051
H	12.0833	10.6915	15.1404
H	10.7965	9.4268	15.1248
C	11.4584	17.5681	8.2639
C	12.3155	16.6647	9.1672
H	10.8185	16.9035	7.6435
H	10.8186	18.1885	8.9285
C	11.4399	15.7803	10.0516
H	12.9566	17.2906	9.8255
H	12.9566	16.0064	8.5413
H	10.7965	16.4051	10.7072
H	12.0833	15.1404	10.6915
H	10.7965	15.1248	9.4268
C	14.3736	21.1799	21.1799
C	13.5165	22.0833	22.0832
H	15.0135	21.8445	20.5595
H	15.0134	20.5595	21.8445
C	14.3921	22.9677	22.9676
H	12.8754	21.4574	22.7415
H	12.8754	22.7416	21.4573
H	15.0355	22.3429	23.6232
H	13.7487	23.6076	23.6075
H	15.0355	23.6232	22.3428
C	14.3736	4.6521	4.6521
C	13.5165	3.7487	3.7488
H	15.0135	3.9875	5.2725
H	15.0134	5.2725	3.9875
C	14.3921	2.8643	2.8644
H	12.8754	4.3746	3.0905
H	12.8754	3.0904	4.3747
H	15.0355	3.4891	2.2088
H	13.7487	2.2244	2.2245
H	15.0355	2.2088	3.4892
