190

Ni    6.255000    0.000000    9.834753
Ni    6.255000    6.398700    9.834753
Ni    0.000000    3.199350    4.691753
Ni   12.510000    3.199350    4.691753
 N    7.546845    5.583256    0.901846
 N    4.963155    0.815444    0.901846
 N    1.291845    4.014794    6.044846
 N   11.218155    2.383906    6.044846
 O   11.189632    4.757747    4.223812
 O    1.320368    1.640953    4.223812
 O    4.934632    4.840303    9.366812
 O    7.575368    1.558397    9.366812
 O   11.057489    2.830894    3.156465
 O    1.452511    3.567807    3.156465
 O    4.802489    0.368456    8.299465
 O    7.707511    6.030244    8.299465
 C   10.614034    4.021839    3.348720
 C    1.895966    2.376861    3.348720
 C    4.359034    5.576211    8.491721
 C    8.150966    0.822489    8.491721
 C    9.535910    4.580567    2.492462
 C    2.974090    1.818133    2.492462
 C    3.280910    5.017483    7.635462
 C    9.229090    1.381217    7.635462
 C    9.048408    5.869170    2.665895
 C    3.461592    0.529531    2.665895
 C    2.793408    3.728881    7.808895
 C    9.716592    2.669819    7.808895
 H    9.383751    0.018109    3.335842
 H    3.126249    6.380592    3.335842
 H    3.128751    3.181242    8.478842
 H    9.381249    3.217459    8.478842
 C    8.078395    6.320175    1.849279
 C    4.431605    0.078525    1.849279
 C    1.823395    3.277875    6.992279
 C   10.686605    3.120825    6.992279
 H    7.770074    0.797342    1.961262
 H    4.739926    5.601359    1.961262
 H    1.515074    2.402008    7.104263
 H   10.994927    3.996692    7.104263
 C    7.988298    4.299690    0.715530
 C    4.521702    2.099011    0.715530
 C    1.733298    5.298361    5.858530
 C   10.776702    1.100340    5.858530
 H    7.617915    3.776199    0.046579
 H    4.892085    2.622501    0.046579
 H    1.362915    5.821851    5.189579
 H   11.147085    0.576849    5.189579
 C    8.980329    3.770159    1.515303
 C    3.529672    2.628541    1.515303
 C    2.725329    5.827891    6.658303
 C    9.784672    0.570809    6.658303
 H    9.270636    2.888277    1.400336
 H    3.239365    3.510423    1.400336
 H    3.015636    0.311073    6.543336
 H    9.494365    6.087627    6.543336
 O    4.934632   -1.558397    9.366812
 N    4.963155    0.815444   11.187846
 O    7.707511   -0.368456    8.299465
 N    7.546845   -0.815444   11.187846
 O    4.802489    6.767157    8.299465
 N    4.963155    7.214144   11.187846
 N    7.546845    5.583256   11.187846
 O    7.575368    7.957097    9.366812
 O   -1.452511    2.830894    3.156465
 N   -1.291845    2.383906    6.044846
 O   -1.320368    4.757747    4.223812
 O   13.830368    1.640953    4.223812
 O   13.962511    3.567807    3.156465
 N   13.801845    4.014794    6.044846
 C    4.359034   -0.822489    8.491721
 C    8.150966    7.221189    8.491721
 H    9.383751    6.416809    3.335842
 H    3.126249   -0.018109    3.335842
 H    7.770074    7.196042    1.961262
 H    4.739926   -0.797342    1.961262
 H    3.015636    6.709773    6.543336
 H    9.494365   -0.311073    6.543336
 C    4.431605    0.078525   12.135279
 C    4.521702    2.099011   11.001530
 C    8.078395   -0.078525   12.135279
 C    7.988298   -2.099011   11.001530
 C    4.431605    6.477225   12.135279
 C    4.521702    8.497711   11.001530
 C    8.078395    6.320175   12.135279
 C    7.988298    4.299690   11.001530
 C   -1.895966    4.021839    3.348720
 C   -1.733298    1.100340    5.858530
 C   -1.823395    3.120825    6.992279
 C   14.405966    2.376861    3.348720
 C   14.333395    3.277875    6.992279
 C   14.243299    5.298361    5.858530
 C    3.280910   -1.381217    7.635462
 C    9.229090    7.779917    7.635462
 H    4.739926   -0.797342   12.247263
 C    3.461592    0.529531   12.951895
 H    4.892085    2.622501   10.332579
 C    3.529672    2.628541   11.801303
 C    9.048408   -0.529531   12.951895
 H    7.770074    0.797342   12.247263
 H    7.617915   -2.622501   10.332579
 C    8.980329   -2.628541   11.801303
 H    4.739926    5.601359   12.247263
 C    3.461592    6.928231   12.951895
 H    4.892085    9.021201   10.332579
 C    3.529672    9.027242   11.801303
 C    9.048408    5.869170   12.951895
 H    7.770074    7.196042   12.247263
 H    7.617915    3.776199   10.332579
 C    8.980329    3.770159   11.801303
 C   -2.974090    4.580567    2.492462
 C   -2.725329    0.570809    6.658303
 H   -1.362915    0.576849    5.189579
 C   -2.793408    2.669819    7.808895
 H   -1.515074    3.996692    7.104263
 C   15.484090    1.818133    2.492462
 H   14.025074    2.402008    7.104263
 C   15.303408    3.728881    7.808895
 H   13.872915    5.821851    5.189579
 C   15.235329    5.827891    6.658303
 C    2.793408   -2.669819    7.808895
 C    2.725329   -0.570809    6.658303
 C    9.784672    6.969509    6.658303
 C    9.716592    9.068520    7.808895
 H    3.126249   -0.018109   13.621843
 C    2.974090    1.818133   12.778463
 H    3.239365    3.510423   11.686336
 C    9.535910   -1.818133   12.778463
 H    9.383751    0.018109   13.621843
 H    9.270636   -3.510423   11.686336
 H    3.126249    6.380592   13.621843
 C    2.974090    8.216833   12.778463
 H    3.239365    9.909123   11.686336
 C    9.535910    4.580567   12.778463
 H    9.383751    6.416809   13.621843
 H    9.270636    2.888277   11.686336
 C   -3.529672    3.770159    1.515303
 C   -3.461592    5.869170    2.665895
 H   -3.015636   -0.311073    6.543336
 C   -3.280910    1.381217    7.635462
 H   -3.128751    3.217459    8.478842
 C   15.971592    0.529531    2.665895
 C   16.039672    2.628541    1.515303
 H   15.638751    3.181242    8.478842
 C   15.790910    5.017483    7.635462
 H   15.525636    6.709773    6.543336
 C    1.823395   -3.120825    6.992279
 H    3.128751   -3.217459    8.478842
 C    1.733298   -1.100340    5.858530
 C   10.776702    7.499040    5.858530
 H    9.381249    9.616159    8.478842
 C   10.686605    9.519526    6.992279
 C    1.895966    2.376861   13.634721
 C   10.614034   -2.376861   13.634721
 C    1.895966    8.775562   13.634721
 C   10.614034    4.021839   13.634721
 H   -3.239365    2.888277    1.400336
 C   -4.521702    4.299690    0.715530
 C   -4.431605    6.320175    1.849279
 H   -3.126249    6.416809    3.335842
 C   -4.359034    0.822489    8.491721
 H   15.636249   -0.018109    3.335842
 C   16.941605    0.078525    1.849279
 C   17.031702    2.099011    0.715530
 H   15.749365    3.510423    1.400336
 C   16.869035    5.576211    8.491721
 N    1.291845   -2.383906    6.044846
 H    1.515074   -3.996692    7.104263
 H    1.362915   -0.576849    5.189579
 H   11.147085    6.975550    5.189579
 N   11.218155    8.782606    6.044846
 H   10.994927   10.395392    7.104263
 O    1.320368    1.640953   14.509812
 O    1.452511    3.567807   13.442465
 O   11.057489   -3.567807   13.442465
 O   11.189632   -1.640953   14.509812
 O    1.320368    8.039653   14.509812
 O    1.452511    9.966507   13.442465
 O   11.057489    2.830894   13.442465
 O   11.189632    4.757747   14.509812
 H   -4.892085    3.776199    0.046579
 N   -4.963155    5.583256    0.901846
 H   -4.739926    7.196042    1.961262
 O   -4.802489   -0.368456    8.299465
 O   -4.934632    1.558397    9.366812
 H   17.249927   -0.797342    1.961262
 N   17.473155    0.815444    0.901846
 H   17.402086    2.622501    0.046579
 O   17.444633    4.840303    9.366812
 O   17.312489    6.767157    8.299465
