140

Ni	2.2951	9.0451	8.6787
Ni	5.9344	3.7887	3.2053
O	0.4293	4.4588	3.5556
O	3.7666	8.0655	8.8253
O	4.5307	2.6957	3.2370
O	0.8287	10.0291	8.8116
O	5.3315	4.8454	4.4703
O	1.8510	7.9207	9.9421
O	-0.4424	2.2894	4.7613
O	2.7488	10.1840	9.8878
N	3.0320	10.2067	7.3432
N	-0.1643	2.1900	2.1504
N	1.5562	7.8588	7.3760
N	5.2265	4.9854	1.8525
C	3.0665	11.1094	5.1118
C	-0.3078	11.1763	0.1846
C	4.3744	1.2537	5.3124
C	1.0647	11.3505	-0.0725
C	4.9888	11.3852	6.5366
C	1.8170	1.6964	0.8421
H	-0.5781	11.2279	6.9782
C	1.7073	6.6233	5.3173
C	5.3852	6.7573	0.1964
H	11.5120	5.0094	9.7081
C	2.2603	7.4902	6.2825
C	5.9855	5.9129	1.1726
H	3.2512	7.8836	6.1512
H	12.9335	3.7575	0.4310
C	2.3622	10.5595	6.2129
C	12.5432	1.4086	1.3029
H	1.3397	10.2397	6.0879
H	5.7639	3.4681	0.1401
C	4.3210	10.6438	7.5256
C	1.1852	2.3004	1.9461
H	4.8499	10.3904	8.4341
H	1.7915	2.7736	2.6960
C	0.2898	7.3638	7.5712
C	3.9010	4.8616	1.5449
H	-0.2585	7.6339	8.4622
H	3.2767	4.2435	2.1471
C	-0.3030	6.4815	6.6447
C	3.2952	5.6237	0.5469
C	0.3942	6.0932	5.4939
C	4.0246	6.5898	-0.1430
C	5.1437	2.0334	4.2356
C	1.5017	10.6807	9.7747
C	-0.2594	5.1355	4.4938
C	3.1054	7.4294	9.8059
Ni	9.0808	8.7231	9.0663
Ni	12.4894	3.3676	3.4521
O	7.3191	4.8396	3.4836
O	10.4428	7.6136	9.1942
O	11.0875	2.3079	3.6343
O	7.7102	9.8237	9.1994
O	11.9746	4.5611	4.6854
O	8.4878	7.5818	10.2677
O	6.3623	2.5934	4.4658
O	9.6249	9.7966	10.3573
N	9.8900	9.8622	7.7866
N	6.8166	2.7312	1.8552
N	8.3247	7.6577	7.6778
N	11.7061	4.4318	2.0472
C	9.7623	10.8856	5.6422
C	7.0149	2.0504	10.5775
H	12.2991	10.5583	10.5484
C	11.1166	11.3062	5.7250
C	8.1672	1.1025	0.0360
C	11.8422	10.9288	6.8626
C	8.6074	1.2112	1.3410
H	6.0141	1.2859	6.6944
H	9.4575	11.0337	1.6605
C	8.5249	6.5023	5.5783
C	11.4475	5.1014	-0.2633
H	9.1070	6.3231	4.6961
H	5.9633	7.5527	-0.2502
C	9.0904	7.2420	6.6254
C	12.0916	4.3426	0.7267
H	10.1289	7.5343	6.5647
H	7.0433	6.0022	1.3696
C	9.1410	10.4187	6.8009
C	6.5324	2.8195	0.5067
H	8.0746	10.2552	6.7970
H	11.4775	1.3810	1.4020
C	11.2313	10.1171	7.8376
C	7.9704	2.1001	2.2199
H	11.8283	9.6642	8.6055
H	8.4221	2.3238	3.1732
C	7.0177	7.2611	7.7686
C	10.6102	5.1851	2.3473
H	6.4189	7.5966	8.5983
H	10.1241	5.0649	3.2954
C	6.4476	6.4105	6.8006
C	10.1673	6.1715	1.4621
H	12.1565	6.0933	6.8390
C	7.1836	6.0932	5.6371
C	10.4938	6.0485	0.1063
C	11.7816	1.7176	4.6263
C	8.4445	10.4191	10.1599
C	6.5633	5.4054	4.4455
C	9.6791	6.9710	10.1009
S	2.5876	10.5887	3.5272
C	1.0224	9.7484	3.4301
H	0.7586	9.5991	2.3669
H	1.0819	8.7669	3.9215
H	0.2342	10.3437	3.9174
S	3.5601	1.8659	0.6327
C	4.5351	10.7966	1.0142
H	3.8826	9.9146	1.1551
H	5.2219	10.5783	0.1721
H	5.1357	10.9451	1.9282
S	2.6603	6.2604	3.9079
C	3.8019	7.5414	3.4081
H	4.8095	7.1259	3.2673
H	3.4609	7.9873	2.4561
H	3.9137	8.3219	4.1734
S	1.5809	5.4298	0.2712
C	0.6882	6.7549	1.0578
H	-0.0352	7.1765	0.3329
H	1.3880	7.5515	1.3708
H	0.1522	6.3894	1.9486
S	9.1579	10.2459	4.1476
C	7.4579	9.7158	4.1285
H	6.8651	10.3228	4.8281
H	7.0444	9.8317	3.1071
H	7.3882	8.6537	4.4175
S	7.0764	2.5452	8.9005
C	8.3523	3.7582	8.6688
H	8.4637	3.9717	7.5862
H	8.0732	4.6894	9.2017
H	9.3122	3.3682	9.0652
S	4.8013	5.8374	7.0295
C	4.5727	4.5817	8.2520
H	4.7076	3.5895	7.7817
H	5.2890	4.7431	9.0794
H	3.5395	4.6447	8.6489
S	9.8116	7.7503	2.1117
C	11.3837	8.5771	2.2229
H	11.8415	8.6257	1.2166
H	12.0426	8.0212	2.9203
H	11.2710	9.6094	2.5901
