140

Ni	2.7022	9.0524	8.5780
Ni	6.3831	3.2499	3.9763
O	0.4023	4.4112	3.8167
O	4.1367	8.0375	8.6560
O	4.9171	2.2689	4.0392
O	1.2767	10.0708	8.7207
O	6.0016	4.3328	5.3222
O	2.2682	7.8985	9.8567
O	-0.6778	2.3746	5.0636
O	3.1943	10.2490	9.8443
N	3.4729	10.2008	7.2753
N	-0.0274	2.0834	2.5292
N	1.8815	7.8559	7.2723
N	5.6364	4.5252	2.7515
C	3.6681	11.4598	5.2523
C	0.2131	1.0165	9.8391
H	3.4176	11.4834	4.2227
H	6.0953	11.4265	9.7853
C	4.8872	12.0231	5.6827
C	1.5496	11.9807	0.9030
C	5.4445	11.5389	6.8443
C	2.0091	0.7783	2.1323
H	12.8700	1.3567	7.4782
H	3.0532	0.6440	2.3548
C	1.4701	6.9338	5.0774
C	5.6140	5.7491	0.6639
H	1.6283	7.0282	4.0263
H	13.2238	7.4693	0.7097
C	2.3297	7.6132	5.9929
C	6.2335	4.8363	1.5556
C	2.8862	10.6830	6.1382
C	-0.4018	1.8132	1.2357
H	5.2866	1.6601	1.6296
C	4.7757	10.5480	7.5570
C	1.1812	1.5535	2.9910
H	5.2902	10.0632	8.3653
C	0.6889	7.2784	7.6693
C	4.4839	5.2091	3.1280
H	0.2428	7.5696	8.6047
C	0.0275	6.3123	6.8801
C	3.9040	6.1425	2.2786
H	6.1034	6.5896	6.8411
H	3.0210	6.6585	2.5786
C	0.3624	6.1852	5.5408
C	4.4128	6.3864	1.0368
C	5.5573	1.5031	4.9178
C	1.9453	10.7738	9.6381
C	-0.3172	5.1736	4.6254
C	3.4996	7.3583	9.5970
Ni	9.6709	9.2237	8.4031
Ni	-0.9860	3.3742	3.6385
O	7.8420	4.2163	4.1060
O	11.0898	8.2053	8.5100
O	12.0779	2.3030	3.7134
O	8.2173	10.2158	8.5219
O	12.8903	4.6798	4.7397
O	9.1291	7.8890	9.4992
O	6.7986	1.9839	5.1703
O	9.9992	10.2406	9.8398
N	10.5342	10.5523	7.2927
N	7.1177	2.1664	2.5861
N	9.0160	8.2341	6.8914
N	12.8505	4.3858	2.0825
C	11.0912	11.3856	5.1048
C	6.9365	0.4720	0.8877
H	10.9807	11.2617	4.0338
H	-0.0138	0.9247	8.7967
C	12.0510	0.6501	5.6257
C	8.3368	11.9072	0.8886
C	12.2576	0.6092	7.0038
C	9.0999	1.1626	1.6399
H	6.4216	11.8743	7.1696
H	10.1773	1.0490	1.6481
C	9.2597	6.1554	5.7333
C	12.7179	6.5717	1.0340
H	9.8270	5.5517	5.0422
H	5.8627	5.9607	9.1555
C	9.7803	7.4109	6.0938
C	-1.0068	5.5028	1.5813
H	7.1810	4.3909	1.2889
C	10.1656	10.7800	5.9954
C	6.3512	1.4813	1.6856
H	9.2238	10.4059	5.6198
H	13.1637	2.2053	0.8434
C	11.6898	11.1734	7.7567
C	8.4776	1.8972	2.6577
C	7.6568	8.0495	6.8800
C	11.5303	4.1843	1.7191
H	6.9959	8.8046	7.2560
H	11.0675	3.2298	1.8771
C	7.1200	6.8103	6.5805
C	10.7496	5.2089	1.1322
H	-0.8236	5.7771	7.2831
H	9.7145	5.0143	0.8796
C	7.8887	5.8856	5.9103
C	11.3306	6.4298	0.7985
C	12.6603	1.7504	4.7841
C	8.7685	10.7689	9.5913
C	7.2288	4.8429	5.0970
C	10.4053	7.4120	9.3290
S	1.1720	10.4015	5.7990
C	0.7884	10.0812	4.0943
H	0.3269	9.0900	3.9754
H	1.6998	10.1032	3.4733
H	0.0607	10.8414	3.7549
S	1.9237	2.1249	4.4908
C	1.5993	2.0165	6.2655
H	2.5273	1.7777	6.8190
H	0.8335	1.2709	6.5229
H	1.2266	2.9934	6.6294
S	4.0407	7.8287	5.5883
C	4.5494	8.6398	4.0883
H	5.2437	7.9798	3.5363
H	3.6755	8.8944	3.4590
H	5.1382	9.5414	4.3312
S	3.4510	4.6528	4.4394
C	3.5686	4.6382	6.2361
H	2.5738	4.8339	6.6668
H	4.2583	5.3898	6.6399
H	3.9125	3.6434	6.5803
S	12.7900	10.2995	8.8285
C	12.8196	10.4249	1.1535
H	-0.6662	10.4037	1.6125
H	12.2984	11.3626	1.4295
H	12.2635	9.5526	1.5503
S	9.2576	1.7683	4.2248
C	9.6676	2.7706	5.6542
H	10.0772	2.1232	6.4457
H	10.4361	3.5169	5.3939
H	8.7881	3.2031	6.1474
S	10.8436	8.1216	4.8983
C	12.4808	8.3524	5.4811
H	13.1346	7.8510	4.7550
H	12.5670	7.9283	6.4931
H	12.7492	9.4201	5.5175
S	0.7280	5.4979	1.3119
C	1.0551	4.3728	9.4971
H	1.7635	4.8959	8.8293
H	0.1863	4.0096	8.9112
H	1.7962	3.5230	0.5207
