172

C	3.5600	12.6367	5.4211
C	0.5829	0.9885	0.3385
C	4.5118	1.1080	5.6251
C	1.6797	0.2024	0.7028
C	5.1459	1.2200	6.8848
C	2.2627	0.4010	1.9556
C	2.4496	7.8231	5.3972
C	6.7078	6.4521	0.6471
C	3.2058	8.3550	6.4664
C	7.0628	5.1466	1.0302
C	3.3589	11.6750	6.3987
C	-0.0434	1.7951	1.2627
C	4.8827	12.7197	7.8204
C	1.6606	1.3455	2.7994
C	1.2952	8.8056	7.7217
C	4.8997	4.7250	1.7437
C	0.4924	8.1664	6.7771
C	4.4973	6.0551	1.5254
C	1.0729	7.6526	5.6239
C	5.4006	6.9020	0.8529
C	5.1088	1.7641	4.4638
C	1.7522	11.7551	9.9335
C	0.1463	6.8902	4.6931
C	4.7269	8.2615	10.6706
C	9.2521	11.8864	5.1318
C	6.5265	11.9160	0.5548
C	10.5170	-0.0110	5.3259
C	7.8639	11.5678	0.3659
C	11.4344	11.8247	6.1410
C	8.8620	-0.5317	1.2446
C	8.5206	6.6092	4.8819
C	11.5940	5.2756	0.1434
C	8.8249	7.6126	5.7774
C	12.1821	4.5181	1.1370
C	8.9007	10.8493	6.0169
C	6.2503	0.5202	1.3324
C	11.0385	10.7257	6.8963
C	8.4093	0.3776	2.3426
C	7.2165	6.8163	7.2937
C	10.6147	5.2989	2.6891
C	6.8594	5.7464	6.4390
C	10.0432	6.1736	1.7616
C	7.5628	5.6665	5.2189
C	10.5456	6.1444	0.4670
C	10.9361	1.2930	4.7957
C	8.0504	10.7374	9.5421
C	7.2315	4.6510	4.2330
C	9.9576	6.9732	9.6200
C	8.0239	2.2697	6.6799
C	6.5474	2.4509	9.0866
C	10.8370	0.7927	8.5851
C	1.0146	1.8613	7.9314
C	4.9713	8.1630	4.0796
C	2.3671	9.5438	3.2701
C	2.2485	5.0414	2.9721
C	1.7900	7.2151	1.0600
C	6.4566	11.6604	4.3891
C	8.3694	9.9844	3.2314
C	11.4256	11.8502	2.5433
C	10.8142	9.5009	1.1589
C	4.9991	5.0929	8.5368
C	4.0582	4.5059	5.9881
C	0.8265	5.4962	8.2273
C	10.7170	4.2674	7.7036
H	3.0751	12.5058	4.4591
H	5.7368	11.3906	0.0242
H	-0.0476	12.1868	6.2306
H	3.1502	-0.1359	2.2803
H	4.2898	8.4546	6.4087
H	0.5722	3.9348	0.9540
H	2.6707	10.8530	6.2349
H	5.2662	0.9880	1.3123
H	5.3862	12.7092	8.7836
H	2.0687	1.5943	3.7738
H	0.8813	9.2818	8.6083
H	4.2243	3.9952	2.1763
H	9.0041	6.6001	3.9193
H	7.4596	7.0901	0.1902
H	9.5979	8.3432	5.5664
H	8.0858	4.7877	0.9413
H	7.8985	10.4196	6.0011
H	11.5008	2.2665	1.0686
H	11.7255	10.2512	7.5896
H	9.1882	1.0511	2.7489
H	6.7391	6.9743	8.2594
H	10.2613	5.2192	3.7101
H	11.9296	8.0769	6.9490
H	9.2310	6.8393	2.0401
H	8.1112	1.2277	6.3605
H	8.6954	2.4654	7.5167
H	8.2513	2.9068	5.8275
H	7.2056	3.2751	9.3758
H	7.0437	1.5071	9.3357
H	5.6012	2.5340	9.6222
H	10.3486	-0.1684	8.7804
H	10.4455	1.5311	9.3053
H	10.6284	1.1289	7.5680
H	2.0483	1.8356	8.2987
H	0.9566	1.5535	6.8814
H	0.6028	2.8712	8.0112
H	5.1711	9.0896	4.6232
H	5.4920	8.1870	3.1265
H	5.2899	7.3050	4.6804
H	1.3004	9.3083	3.3042
H	2.6782	9.8607	2.2795
H	2.5968	10.3030	4.0255
H	2.9106	4.6750	3.7544
H	2.1713	4.2791	2.1904
H	1.2588	5.2518	3.3689
H	1.3094	6.4149	10.6370
H	2.2433	8.0598	0.5424
H	0.8955	7.5191	1.6059
H	6.3958	12.2593	5.2931
H	6.2338	10.6169	4.6054
H	5.7608	12.0227	3.6313
H	9.4170	9.7274	3.0907
H	7.7943	9.8048	2.3174
H	7.9535	9.3713	4.0358
H	11.0977	11.2226	3.3866
H	11.2437	0.3739	2.7407
H	-0.0166	11.6544	2.3918
H	11.1581	9.2576	10.5322
H	9.8867	8.9356	1.1280
H	-1.1076	9.2823	2.0559
H	5.8129	5.1063	9.2540
H	4.5768	6.1005	8.4353
H	4.2270	4.3932	8.8628
H	4.1266	3.8396	5.1377
H	3.2820	4.1853	6.6894
H	3.8424	5.5259	5.6500
H	1.2896	6.4280	8.5597
H	1.3196	4.6598	8.7493
H	0.9184	5.3746	7.1414
H	9.6659	4.3262	8.0044
H	10.8298	4.5728	6.6553
H	11.0776	3.2427	7.8209
N	4.0661	11.6632	7.5561
N	0.5180	1.9915	2.4766
N	2.6352	8.8683	7.5764
N	6.1533	4.2812	1.5224
N	9.7585	10.2829	6.8746
N	7.1871	1.1212	2.0612
N	8.1780	7.7174	6.9553
N	11.6497	4.4831	2.3859
Ni	3.7966	10.0292	8.6764
Ni	6.5999	2.8141	2.8326
Ni	8.8849	9.0776	8.1417
Ni	12.0243	3.1257	3.7109
O	-0.1931	5.7532	5.1297
O	4.8478	8.5705	9.4162
O	4.5629	2.0198	3.3557
O	0.8986	11.8595	8.8290
O	6.0025	4.3672	4.0740
O	4.2255	9.0079	11.5325
O	-0.4265	1.8129	5.1388
O	2.6208	10.8732	9.9810
O	8.0933	4.0203	3.5324
O	10.7893	6.8054	8.5268
O	10.2759	2.0100	3.9590
O	7.2786	10.1412	8.7237
O	12.3104	7.4506	3.6297
O	9.0274	7.7930	9.5790
O	6.3762	1.9903	4.5798
O	9.3317	10.5528	9.4006
P	6.3678	2.4919	7.3168
P	0.0659	0.7473	8.9176
P	3.2207	8.0684	3.7906
P	2.9131	6.5064	2.2298
P	8.1171	11.6806	3.7662
P	10.4747	11.2566	1.1796
P	5.5617	4.5795	6.9467
P	11.6336	5.4125	8.6866
