204

C	3.4855	12.1483	5.3630
C	0.4749	0.3896	0.2292
C	4.7607	0.1474	5.6148
C	1.7433	12.3699	0.4741
C	5.5035	12.1502	6.6821
C	2.4985	0.3551	1.5400
C	2.4836	6.6337	5.4082
C	5.7280	5.9036	0.2867
C	2.9276	7.6810	6.2307
C	6.1883	4.8676	1.1160
C	2.9826	11.1359	6.1975
C	-0.0104	1.4055	1.0711
C	4.9364	11.1381	7.4751
C	1.9482	1.3719	2.3406
C	0.9457	7.6265	7.4730
C	4.2108	4.9046	2.3569
C	0.4386	6.5758	6.6918
C	3.6876	5.9450	1.5694
C	1.2275	6.0647	5.6521
C	4.4634	6.4578	0.5203
C	5.3126	1.2438	4.7942
C	2.0502	11.2676	9.9216
C	0.7355	4.9402	4.8359
C	3.7318	7.5663	9.9569
C	9.7383	12.1483	5.3630
C	6.7277	0.3896	0.2292
C	11.0136	0.1474	5.6148
C	7.9961	12.3699	0.4741
C	11.7563	12.1502	6.6821
C	8.7513	0.3551	1.5400
C	8.7365	6.6337	5.4082
C	11.9809	5.9036	0.2867
C	9.1804	7.6810	6.2307
C	12.4411	4.8676	1.1160
C	9.2354	11.1359	6.1975
C	6.2425	1.4055	1.0711
C	11.1892	11.1381	7.4751
C	8.2010	1.3719	2.3406
C	7.1985	7.6265	7.4730
C	10.4636	4.9046	2.3569
C	6.6914	6.5758	6.6918
C	9.9404	5.9450	1.5694
C	7.4803	6.0647	5.6521
C	10.7162	6.4578	0.5203
C	11.5654	1.2438	4.7942
C	8.3030	11.2676	9.9216
C	6.9883	4.9402	4.8359
C	9.9846	7.5663	9.9569
C	6.4576	0.9117	7.3061
C	7.2305	14.0621	8.5250
C	5.4647	2.1540	7.2404
C	7.8887	12.9370	6.6870
C	3.0358	11.7714	2.3805
C	4.4033	-1.0459	2.7082
C	2.0227	10.7753	2.7714
C	4.5219	-0.7634	-0.1900
C	11.6584	5.6283	6.8804
C	10.9536	6.1219	8.0454
C	11.9638	4.0693	7.3331
C	11.0900	5.3577	5.5245
C	6.6888	6.6051	9.8988
C	7.8227	5.6347	9.6699
C	5.6525	6.0485	9.0160
C	6.6043	7.9392	10.6240
C	8.5729	0.6488	5.3170
C	7.0167	11.5844	3.9798
C	8.9489	2.1387	5.4739
C	8.0215	12.4653	4.1570
C	9.5087	11.6730	2.3420
C	10.9450	-0.7935	2.6786
C	9.0349	10.2624	2.3464
C	10.8333	-0.8491	-0.2060
C	5.1284	6.5301	6.7345
C	4.7052	6.8492	8.2161
C	5.1018	7.4155	5.5543
C	4.2826	5.1653	6.7308
C	0.4037	6.7165	9.9817
C	1.5891	5.7929	9.7713
C	11.9410	5.9686	9.0782
C	0.3002	8.0445	10.7028
H	2.8645	12.5181	4.5527
H	5.8697	0.0337	9.6938
H	0.2477	12.5084	6.9199
H	3.1330	6.2729	4.6161
H	3.8999	8.1466	6.0889
H	0.9159	4.4189	0.9763
H	1.9939	10.7091	6.0470
H	5.2609	1.8501	0.9235
H	5.4856	10.7097	8.3094
H	2.5089	1.7921	3.1727
H	0.3633	8.0519	8.2873
H	3.6361	4.4774	3.1753
H	2.6982	6.3268	1.8007
H	12.1225	0.0337	9.6938
H	9.3858	6.2729	4.6161
H	10.1528	8.1466	6.0889
H	7.1687	4.4189	0.9763
H	8.2467	10.7091	6.0470
H	11.5137	1.8501	0.9235
H	11.7384	10.7097	8.3094
H	8.7617	1.7921	3.1727
H	6.6161	8.0519	8.2873
H	9.8889	4.4774	3.1753
H	8.9510	6.3268	1.8007
H	7.7790	14.8990	8.0597
H	6.5783	14.5233	9.2717
H	7.9876	13.4329	8.9838
H	4.9144	2.1291	8.1881
H	6.0567	3.0725	7.1967
H	4.7136	2.1790	6.4527
H	7.7070	11.9004	6.9637
H	6.8453	1.5020	5.8802
H	8.6891	0.7461	7.3448
H	5.1150	-0.2307	2.5857
H	4.6749	-1.8389	1.9922
H	4.4720	-1.5355	3.6805
H	2.3263	10.2458	3.6776
H	1.9892	10.0240	1.9580
H	1.0188	11.1937	2.8452
H	4.3755	-0.0617	0.6282
H	4.2821	12.3008	9.1292
H	5.3887	11.1310	-0.0517
H	12.1862	8.8788	4.7119
H	9.8712	6.0960	8.1391
H	9.9080	5.7635	10.0678
H	13.0484	3.8980	7.4079
H	11.4819	3.8208	8.2799
H	11.5726	3.3769	6.5943
H	11.0392	6.2156	4.8430
H	10.1971	4.7226	5.5275
H	9.2471	5.8863	6.1379
H	8.6187	5.4045	0.2861
H	8.4421	6.0488	8.8764
H	7.4516	4.6705	9.3051
H	5.8583	5.0709	8.5853
H	6.8808	5.7138	7.4404
H	6.5389	9.8237	6.1711
H	7.5212	7.9166	1.1923
H	5.6169	8.1017	11.0560
H	6.8126	8.8180	10.0158
H	6.9681	10.9693	3.0922
H	6.1337	9.9195	1.4684
H	6.2275	11.4863	4.7113
H	9.8364	2.1928	6.1046
H	8.1652	2.6645	6.0324
H	9.1064	2.6996	4.5606
H	8.9219	12.1870	3.4495
H	11.3916	0.1916	2.6035
H	6.5610	-2.0735	1.1566
H	9.6538	0.8733	1.1166
H	11.4914	-1.5064	2.0516
H	11.0844	-1.1941	3.6874
H	8.8946	9.9577	3.3936
H	9.8260	9.6242	1.9454
H	8.1300	10.0612	1.7861
H	10.8136	-0.2062	0.6580
H	10.5730	12.2696	9.1469
H	11.6762	10.9906	-0.1499
H	3.6706	5.7346	10.0734
H	3.6822	6.4918	8.2564
H	6.8466	9.6775	5.4942
H	5.6577	8.3478	5.6046
H	4.8493	7.0271	4.5657
H	5.1089	4.9526	5.4525
H	4.8336	4.3326	7.1671
H	3.8283	4.8358	5.7812
H	3.3653	5.2787	7.3072
H	2.3814	5.6556	0.3994
H	2.2011	6.1510	8.9400
H	1.3123	4.7688	9.5012
H	12.5012	5.1039	8.8008
H	1.0024	5.9522	7.5211
H	12.1143	9.1816	5.3982
H	1.2342	8.0132	1.2605
H	-0.6849	8.2095	11.1346
H	0.5275	8.9117	10.0828
N	3.6968	10.6606	7.2416
N	0.7126	1.8642	2.1170
N	2.1722	8.1441	7.2520
N	5.4402	4.3948	2.1375
N	9.9496	10.6606	7.2416
N	6.9654	1.8642	2.1170
N	8.4250	8.1441	7.2520
N	11.6931	4.3948	2.1375
Ni	2.8986	9.4112	8.5927
Ni	6.1753	3.1058	3.4848
Ni	9.1514	9.4112	8.5927
Ni	12.4281	3.1058	3.4848
O	1.4483	4.3543	3.9337
O	4.4416	8.1525	9.0546
O	4.6367	1.8473	3.8752
O	1.3650	10.6744	9.0030
O	5.8061	4.4603	4.9624
O	2.5424	8.0327	10.0675
O	0.2512	1.6926	4.9427
O	3.2372	10.8047	10.0626
O	7.7011	4.3543	3.9337
O	10.6944	8.1525	9.0546
O	10.8895	1.8473	3.8752
O	7.6178	10.6744	9.0030
O	12.0589	4.4603	4.9624
O	8.7953	8.0327	10.0675
O	6.5040	1.6926	4.9427
O	9.4900	10.8047	10.0626
