108

Br	1.3901	10.6441	5.5674
Br	11.1197	2.0508	0.2576
Br	0.4905	8.3335	9.6273
Br	3.4176	4.0010	4.2014
Br	11.5026	11.1913	9.3282
Br	4.8434	2.3941	0.2181
Br	5.9046	8.0111	8.2557
Br	1.5795	4.5178	0.5497
C	3.7628	11.9997	5.0190
C	1.0963	0.8625	-0.1415
C	5.0601	-0.0871	5.2850
C	2.2188	12.6881	0.3085
C	5.7289	11.9588	6.4101
C	2.6780	0.3892	1.6069
C	1.9148	6.7337	5.5830
C	5.6597	6.3400	0.9442
C	2.5932	7.7237	6.2962
C	6.1878	5.1808	1.5280
C	3.1609	11.1093	5.9150
C	0.3395	1.5791	0.7893
C	5.0507	11.0780	7.2534
C	1.9408	1.2444	2.4319
C	0.9471	7.7276	7.9222
C	4.3279	4.9272	2.8688
C	0.1656	6.7923	7.2369
C	3.7179	6.0722	2.3289
C	0.7028	6.2423	6.0706
C	4.3955	6.7788	1.3331
C	5.6665	0.9449	4.4457
C	2.5233	11.6281	9.7268
C	-0.0121	5.1111	5.3981
C	3.4825	7.9804	11.0070
C	9.8457	12.0143	5.1312
C	6.7585	0.3906	-0.1098
C	10.9321	0.2561	5.5671
C	7.9029	12.1984	0.2420
C	11.4958	12.5024	6.8161
C	8.6759	0.0992	1.3247
C	8.9941	6.4785	5.2432
C	11.5999	5.7270	0.1151
C	9.2462	7.6082	6.0290
C	12.3083	4.8884	0.9796
C	9.3926	10.9586	5.9316
C	6.3936	1.4762	0.6959
C	10.9266	11.4710	7.5759
C	8.2588	1.2175	2.0527
C	7.1918	7.4168	7.0689
C	10.5422	4.8254	2.4776
C	6.8725	6.2616	6.3574
C	9.8228	5.7613	1.7313
C	7.8046	5.7753	5.4457
C	10.3633	6.2155	0.5281
C	11.4969	1.3358	4.7388
C	8.0848	11.0415	9.7301
C	7.4170	4.5693	4.7221
C	9.4164	7.2307	9.9918
H	3.2066	12.3407	4.1544
H	5.9131	0.1132	9.3154
H	-0.1738	13.0790	7.2001
H	3.5754	12.4382	1.9898
H	2.3393	6.3679	4.6586
H	-0.7003	5.9769	9.4325
H	3.5343	8.1466	5.9523
H	5.5202	10.7315	8.1666
H	2.2669	1.4797	3.4400
H	5.9211	5.7629	6.5187
H	2.7375	6.3870	2.6717
H	9.3464	12.2127	4.1882
H	13.0547	0.8240	9.0989
H	6.7335	12.2742	6.6690
H	9.5843	12.1030	1.6133
H	9.7394	6.1578	4.5276
H	6.0438	6.8638	10.4968
H	10.1838	8.1558	5.9568
H	7.1673	4.8026	1.2487
H	8.5669	10.3238	5.6208
H	8.8350	1.5942	2.8934
H	10.1311	4.3881	3.3831
H	11.6908	6.5057	7.6043
H	8.8619	6.1036	2.0960
N	3.7976	10.6385	7.0125
N	0.7690	1.8071	2.0530
N	2.1208	8.2107	7.4634
N	5.5319	4.4672	2.4692
N	9.9302	10.6707	7.1411
N	7.1074	1.8716	1.7755
N	8.3655	8.0736	6.9464
N	11.7666	4.3940	2.1128
Ni	3.0174	9.6116	8.5138
Ni	6.4653	2.9019	3.3321
Ni	9.0104	9.3214	8.3423
Ni	12.4753	3.0505	3.3443
O	0.6089	4.5329	4.4068
O	3.7390	8.2535	9.7621
O	4.9740	1.5955	3.5690
O	1.7755	11.1514	8.7794
O	6.3344	3.9457	5.0286
O	2.6765	8.6186	11.7049
O	0.1943	1.7623	4.8877
O	3.6395	11.0379	9.8837
O	8.0331	4.0928	3.7021
O	10.0685	7.8567	9.0511
O	10.8379	1.9157	3.8012
O	7.5735	10.7394	8.5925
O	11.3711	4.7371	5.7820
O	8.2186	7.4884	10.2269
O	6.8826	1.3150	4.5656
O	9.0380	10.2589	10.1040
