124

C	3.4855	12.1483	5.3630
C	0.4749	0.3896	0.2292
C	4.7607	0.1474	5.6148
C	1.7433	12.3699	0.4741
C	5.5035	12.1502	6.6821
C	2.4985	0.3551	1.5400
C	2.4836	6.6337	5.4082
C	5.7280	5.9036	0.2867
C	2.9276	7.6810	6.2307
C	6.1883	4.8676	1.1160
C	2.9826	11.1359	6.1975
C	-0.0104	1.4055	1.0711
C	4.9364	11.1381	7.4751
C	1.9482	1.3719	2.3406
C	0.9457	7.6265	7.4730
C	4.2108	4.9046	2.3569
C	0.4386	6.5758	6.6918
C	3.6876	5.9450	1.5694
C	1.2275	6.0647	5.6521
C	4.4634	6.4578	0.5203
C	5.3126	1.2438	4.7942
C	2.0502	11.2676	9.9216
C	0.7355	4.9402	4.8359
C	3.7318	7.5663	9.9569
C	9.7383	12.1483	5.3630
C	6.7277	0.3896	0.2292
C	11.0136	0.1474	5.6148
C	7.9961	12.3699	0.4741
C	11.7563	12.1502	6.6821
C	8.7513	0.3551	1.5400
C	8.7365	6.6337	5.4082
C	11.9809	5.9036	0.2867
C	9.1804	7.6810	6.2307
C	12.4411	4.8676	1.1160
C	9.2354	11.1359	6.1975
C	6.2425	1.4055	1.0711
C	11.1892	11.1381	7.4751
C	8.2010	1.3719	2.3406
C	7.1985	7.6265	7.4730
C	10.4636	4.9046	2.3569
C	6.6914	6.5758	6.6918
C	9.9404	5.9450	1.5694
C	7.4803	6.0647	5.6521
C	10.7162	6.4578	0.5203
C	11.5654	1.2438	4.7942
C	8.3030	11.2676	9.9216
C	6.9883	4.9402	4.8359
C	9.9846	7.5663	9.9569
C	6.7300	0.1754	7.0711
C	3.6636	12.2713	1.9933
C	3.0888	6.5615	4.1564
C	6.1249	5.9790	9.3151
C	9.2282	-0.3965	4.0661
C	5.6603	12.6980	9.4248
C	9.8394	6.0663	4.7338
C	8.7525	6.5368	1.9848
H	2.8645	12.5181	4.5527
H	0.2477	12.5084	6.9199
H	-0.1083	6.2667	9.7662
H	3.8999	8.1466	6.0889
H	0.9159	4.4189	0.9763
H	1.9939	10.7091	6.0470
H	5.2609	1.8501	0.9235
H	5.4856	10.7097	8.3094
H	2.5089	1.7921	3.1727
H	0.3633	8.0519	8.2873
H	3.6361	4.4774	3.1753
H	5.7078	6.1769	6.9198
H	2.6982	6.3268	1.8007
H	12.1225	0.0337	9.6938
H	9.7444	12.5067	1.7734
H	10.1528	8.1466	6.0889
H	7.1687	4.4189	0.9763
H	8.2467	10.7091	6.0470
H	11.5137	1.8501	0.9235
H	11.7384	10.7097	8.3094
H	8.7617	1.7921	3.1727
H	6.6161	8.0519	8.2873
H	9.8889	4.4774	3.1753
H	11.9606	6.1769	6.9198
H	7.0313	1.3440	5.7203
H	3.9822	11.1588	0.5699
H	2.5135	5.9256	3.4861
H	5.5378	6.5835	8.6270
H	9.8607	0.1860	3.4029
H	6.1341	11.9507	8.8032
H	9.8969	4.9810	4.7533
H	8.4852	7.6772	0.5601
N	3.6968	10.6606	7.2416
N	0.7126	1.8642	2.1170
N	2.1722	8.1441	7.2520
N	5.4402	4.3948	2.1375
N	9.9496	10.6606	7.2416
N	6.9654	1.8642	2.1170
N	8.4250	8.1441	7.2520
N	11.6931	4.3948	2.1375
Ni	2.8986	9.4112	8.5927
Ni	6.1753	3.1058	3.4848
Ni	9.1514	9.4112	8.5927
Ni	12.4281	3.1058	3.4848
O	1.4483	4.3543	3.9337
O	4.4416	8.1525	9.0546
O	4.6367	1.8473	3.8752
O	1.3650	10.6744	9.0030
O	5.8061	4.4603	4.9624
O	2.5424	8.0327	10.0675
O	0.2512	1.6926	4.9427
O	3.2372	10.8047	10.0626
O	7.7011	4.3543	3.9337
O	10.6944	8.1525	9.0546
O	10.8895	1.8473	3.8752
O	7.6178	10.6744	9.0030
O	12.0589	4.4603	4.9624
O	8.7953	8.0327	10.0675
O	6.5040	1.6926	4.9427
O	9.4900	10.8047	10.0626
S	7.9814	13.4964	7.5026
S	4.8288	-1.0719	2.5586
S	4.3702	7.4153	3.5906
S	7.4534	5.1744	8.7801
S	8.0249	11.1909	3.4537
S	4.2875	0.9625	9.0025
S	11.0784	6.9653	4.1270
S	7.5569	7.3238	2.5323
