124

C	3.4375	12.3146	5.4503
C	0.5146	0.2084	0.3480
C	4.6658	0.3410	5.8088
C	1.7633	12.2322	0.7010
C	5.3479	12.3698	6.9265
C	2.4654	0.2788	1.7683
C	2.3451	6.4686	5.5366
C	5.3945	5.7927	0.3056
C	2.8520	7.5432	6.2943
C	6.0035	4.8182	1.1125
C	2.9339	11.2164	6.1829
C	-0.0044	1.3231	1.0376
C	4.7894	11.2949	7.6302
C	1.8948	1.3766	2.4292
C	0.8519	7.6484	7.5289
C	4.2173	4.9455	2.6374
C	0.2863	6.6016	6.7862
C	3.6451	6.0242	1.9504
C	1.0563	6.0080	5.7793
C	4.2621	6.4609	0.7662
C	5.2825	1.3533	4.9455
C	2.1026	11.1815	10.1313
C	0.5500	4.9213	4.9350
C	3.4766	7.5300	10.2446
C	9.8163	12.2962	5.4584
C	6.8402	0.2620	0.3302
C	11.0765	0.2648	5.7749
C	8.0957	12.2959	0.6642
C	11.7783	12.2500	6.8592
C	8.7771	0.3003	1.7664
C	8.9398	6.4927	5.5227
C	11.9558	6.1164	0.3900
C	9.3313	7.6054	6.2792
C	12.4138	4.9789	1.0896
C	9.2799	11.2279	6.2088
C	6.2789	1.3116	1.0860
C	11.1973	11.1854	7.5701
C	8.1752	1.3482	2.4790
C	7.3413	7.5227	7.5450
C	10.4756	4.9733	2.4201
C	6.9123	6.3674	6.8460
C	9.9684	6.1041	1.7586
C	7.7028	5.8934	5.7969
C	10.7184	6.6587	0.7153
C	11.6410	1.3016	4.9071
C	8.4513	11.2793	10.0604
C	7.1615	4.8268	4.9446
C	9.9729	7.7378	10.1494
C	1.7559	10.6108	5.7367
C	0.7451	10.1751	5.2214
C	11.2959	1.8287	0.5436
C	10.3065	1.9824	-0.1481
C	4.1141	8.0115	5.9196
C	5.1650	8.1643	5.3268
C	7.2697	4.4031	0.6898
C	8.3274	4.3490	0.0922
C	8.0212	10.7764	5.8050
C	6.9663	10.6656	5.2093
C	5.0448	1.7747	0.6221
C	4.0440	1.8763	-0.0628
C	6.5881	8.0985	8.5373
C	5.6888	8.3372	9.4621
C	1.1306	4.4636	0.6593
C	2.1682	4.2992	0.0474
H	2.8695	12.6836	4.6201
H	6.0567	-0.1250	9.7764
H	0.2388	12.6157	7.1505
H	3.4247	12.4384	2.0804
H	2.9690	6.0341	4.7841
H	-0.1606	6.5305	9.8909
H	5.2964	10.8656	8.4728
H	2.4062	1.8747	3.2299
H	0.3036	8.1379	8.3118
H	3.7508	4.5171	3.5037
H	5.9659	5.9201	7.0853
H	2.7385	6.4697	2.3149
H	9.2335	12.7046	4.6589
H	12.2140	-0.2194	9.8302
H	6.2917	12.7733	7.2371
H	9.7445	12.4688	2.0635
H	9.5899	6.1179	4.7573
H	5.6228	5.9947	9.6356
H	10.2754	8.1013	6.1212
H	11.7067	10.7187	8.3899
H	8.6751	1.8200	3.3021
H	9.9206	4.4906	3.1998
H	11.7953	6.2704	7.0091
H	9.0131	6.5019	2.0436
H	12.3657	9.7679	4.8001
H	9.4179	2.1128	-0.7103
H	6.1047	8.3075	4.8612
H	9.2739	4.3041	-0.3792
H	6.0311	10.5620	4.7238
H	3.1487	1.9700	-0.6207
H	5.8975	8.7062	10.4590
H	3.1066	4.1673	-0.4225
N	3.6200	10.7263	7.2819
N	0.6896	1.8734	2.0924
N	2.1024	8.1008	7.3052
N	5.3859	4.3854	2.2587
N	9.9860	10.6850	7.2608
N	6.9585	1.8340	2.1636
N	8.5542	8.1191	7.2447
N	11.6631	4.4253	2.1048
Ni	2.8196	9.4366	8.5868
Ni	6.2146	3.0929	3.4952
Ni	9.1613	9.4372	8.5907
Ni	12.3901	3.1010	3.4196
O	1.3020	4.4151	3.9995
O	4.3440	8.0304	9.1660
O	4.6170	1.9244	3.9906
O	1.3801	10.6724	9.1721
O	5.9436	4.4334	5.0717
O	2.3614	8.0191	10.2414
O	0.3429	1.7018	4.9904
O	3.3010	10.7513	10.2335
O	7.8416	4.2701	3.9976
O	10.7014	8.2597	9.2128
O	10.9157	1.8420	3.9704
O	7.7285	10.7654	9.1018
O	11.8806	4.4378	5.0458
O	8.7711	8.1727	10.2485
O	6.5138	1.6862	5.0586
O	9.6502	10.8646	10.1616
