124

C	3.4755	12.0529	5.4390
C	0.4885	0.6092	0.2402
C	4.7994	0.0317	5.5816
C	1.7923	12.5905	0.4389
C	5.6238	11.9442	6.5272
C	2.5978	0.6777	1.4023
C	2.4079	6.9302	5.3323
C	5.8023	5.8790	0.4410
C	2.8085	7.9771	6.2047
C	6.2230	4.9131	1.3886
C	3.0010	11.1381	6.4098
C	0.0059	1.5547	1.1836
C	5.1186	10.9450	7.3687
C	2.0836	1.6869	2.2283
C	0.8420	7.8258	7.4460
C	4.0554	4.6610	2.2064
C	0.3637	6.8146	6.6040
C	3.5871	5.6816	1.3639
C	1.1638	6.2900	5.5873
C	4.4637	6.3571	0.5121
C	5.3157	1.1597	4.8005
C	2.0729	11.4156	9.9795
C	0.7126	5.0698	4.8970
C	3.7622	7.5131	10.0129
C	9.7177	11.9523	5.3552
C	6.7358	0.6231	0.2269
C	11.0185	-0.0269	5.5493
C	8.0477	12.6146	0.3922
C	11.8336	11.8991	6.5131
C	8.8728	0.7062	1.3372
C	8.8577	6.4433	5.7437
C	11.8603	5.7549	0.3440
C	9.2834	7.5095	6.5323
C	12.2938	4.7700	1.2661
C	9.2525	10.9898	6.2889
C	6.2733	1.5701	1.1770
C	11.3365	10.8800	7.3363
C	8.3807	1.7232	2.1650
C	7.1183	7.8813	7.3573
C	10.4129	5.0888	2.6023
C	6.6317	6.7750	6.6187
C	10.0030	6.1762	1.8218
C	7.5157	6.0605	5.7695
C	10.7385	6.5517	0.6915
C	11.5181	1.1414	4.8130
C	8.3304	11.4454	9.9294
C	7.0285	4.9374	4.9688
C	10.0540	7.6697	10.1337
C	1.6126	11.8789	3.9783
C	10.9147	0.7814	9.0498
C	4.3712	6.9935	4.0127
C	7.5338	5.7408	9.4107
C	7.8363	11.8432	3.9147
C	4.6111	0.7864	9.0969
C	4.5401	5.7965	7.4459
C	0.4624	4.9106	8.9143
H	0.3206	12.2657	6.6895
H	3.6001	12.8588	1.5770
H	3.7608	8.4543	6.0594
H	0.7172	4.2545	1.0981
H	1.9722	10.8250	6.4033
H	5.2504	1.9078	1.1539
H	5.7134	10.4830	8.1247
H	2.6629	2.1347	3.0050
H	0.2873	8.1751	8.2909
H	3.4183	4.1722	2.9121
H	2.5559	5.9752	1.4268
H	6.6368	12.2710	6.6649
H	9.8773	12.8848	1.4882
H	9.5809	5.9041	5.1638
H	10.3057	7.8319	6.5630
H	7.2590	4.6192	1.4335
H	8.2385	10.6298	6.2361
H	11.4937	1.9051	1.1295
H	11.9217	10.4312	8.1101
H	8.9781	2.1940	2.9159
H	6.4727	8.4225	8.0215
H	9.8476	4.7375	3.4387
H	11.9136	6.3797	6.8140
H	9.1079	6.7082	2.0903
N	3.8066	10.6175	7.3393
N	0.7786	2.0421	2.1567
N	2.0764	8.3521	7.2559
N	5.3718	4.3382	2.2399
N	10.0367	10.5064	7.2548
N	7.0721	2.0671	2.1219
N	8.4188	8.1887	7.3303
N	11.5694	4.4281	2.3301
N	2.6678	-0.1514	4.3953
N	11.9734	12.8100	9.4601
N	3.2426	6.5800	4.3155
N	6.4530	6.2496	9.7410
N	8.9160	-0.2265	4.3144
N	5.6848	12.8165	9.4723
N	5.3245	6.4329	6.7674
N	-0.2528	5.8081	9.4028
Ni	2.9681	9.4340	8.6909
Ni	6.2135	3.1006	3.5807
Ni	9.1537	9.4348	8.6810
Ni	12.3878	3.1065	3.5862
O	1.4373	4.4294	4.0448
O	4.5262	8.1874	9.2172
O	4.6390	1.7730	3.8939
O	1.3980	10.8076	9.0685
O	5.8292	4.4826	5.0724
O	2.5452	7.9303	10.0875
O	0.1830	1.6262	5.0490
O	3.2377	10.9217	10.2270
O	7.7716	4.3507	4.0871
O	10.7790	8.2324	9.2339
O	10.8427	1.7614	3.9057
O	7.6367	10.7907	9.0590
O	12.0500	4.5749	5.1231
O	8.8547	8.1332	10.2515
O	6.5071	1.6153	5.0017
O	9.5156	10.9933	10.1353
O	0.6528	11.5308	3.4136
O	9.9445	1.1357	8.5068
O	5.4222	7.2564	3.5792
O	8.5257	5.3585	8.9278
O	6.8434	11.5346	3.3861
O	3.6241	1.1340	8.5830
O	3.6786	5.2528	8.0168
O	1.0878	4.1263	8.3288
