752

Ni	2.9028	9.4421	8.6245
O	1.4194	4.3784	4.0368
O	4.6360	1.6666	3.8035
O	5.7451	4.4111	5.1094
O	0.3079	1.5003	4.8721
N	3.7677	10.5560	7.1530
N	2.0951	8.0914	7.3471
C	3.5585	12.0137	5.2748
H	3.0266	12.3506	4.5628
C	4.8383	12.4984	5.4834
C	5.5898	11.9548	6.5283
H	0.2284	12.2454	6.6834
C	2.4254	6.5009	5.5902
H	2.9870	6.1490	4.9091
C	2.8617	7.5541	6.3875
H	3.7328	7.9060	6.2457
C	3.0629	11.0319	6.1132
H	2.1949	10.6825	5.9498
C	5.0180	10.9918	7.3328
H	5.5326	10.6236	8.0407
C	0.8614	7.5704	7.5475
H	0.3136	7.9473	8.2266
C	0.3657	6.5159	6.8077
C	1.1715	5.9737	5.8009
C	5.3864	1.1183	4.6748
C	0.6533	4.8365	4.9471
Ni	6.1430	3.0813	3.4874
O	4.4320	8.1450	9.1739
O	1.3958	10.8568	8.9407
O	2.5049	8.1123	10.2465
O	3.3205	11.0231	10.0092
N	0.7551	1.9674	2.0158
N	5.3353	4.4320	2.2100
C	0.5459	0.5097	0.1377
C	1.8257	0.0250	0.3462
C	2.5772	0.5686	1.3911
H	3.4686	0.2780	1.5463
C	5.6656	6.0225	0.4531
H	5.9996	6.3744	10.0462
C	6.1019	4.9693	1.2504
H	0.7202	4.6174	1.1086
C	0.0503	1.4915	0.9761
H	5.4351	1.8409	0.8127
C	2.0054	1.5316	2.1956
H	2.5200	1.8998	2.9035
C	4.1016	4.9530	2.4103
H	3.5538	4.5761	3.0895
C	3.6059	6.0075	1.6706
C	4.4117	6.5497	0.6637
C	2.1462	11.4051	9.8119
C	3.6659	7.6869	10.0842
Ni	2.6752	9.4421	18.8988
O	1.1918	4.3784	14.3110
O	4.4084	1.6666	14.0778
O	5.5175	4.4111	15.3837
O	0.0803	1.5003	15.1463
N	3.5401	10.5560	17.4272
N	1.8675	8.0914	17.6214
C	3.3310	12.0137	15.5491
H	2.7990	12.3506	14.8371
C	4.6107	12.4984	15.7577
C	5.3622	11.9548	16.8026
H	0.0008	12.2454	16.9577
C	2.1978	6.5009	15.8645
C	2.6341	7.5541	16.6618
H	3.5052	7.9060	16.5200
C	2.8353	11.0319	16.3875
H	1.9673	10.6825	16.2241
C	4.7904	10.9918	17.6070
H	5.3050	10.6236	18.3149
C	0.6338	7.5704	17.8218
H	0.0860	7.9473	18.5009
C	0.1381	6.5159	17.0820
H	5.5242	6.1678	17.2515
C	0.9439	5.9737	16.0751
C	5.1588	1.1183	14.9491
C	0.4257	4.8365	15.2213
Ni	5.9154	3.0813	13.7617
O	4.2044	8.1450	19.4482
O	1.1682	10.8568	19.2150
O	2.2773	8.1123	20.5208
O	3.0929	11.0231	20.2835
N	0.5275	1.9674	12.2901
N	5.1077	4.4320	12.4843
C	0.3184	0.5097	10.4120
C	1.5981	0.0250	10.6205
C	2.3496	0.5686	11.6654
H	3.2410	0.2780	11.8206
C	5.4380	6.0225	10.7274
H	5.7720	6.3744	20.3205
C	5.8743	4.9693	11.5247
H	0.4926	4.6174	11.3829
C	-0.1773	1.4915	11.2503
H	5.2075	1.8409	11.0870
C	1.7778	1.5316	12.4699
H	2.2924	1.8998	13.1778
C	3.8740	4.9530	12.6846
H	3.3262	4.5761	13.3638
C	3.3783	6.0075	11.9449
C	4.1841	6.5497	10.9380
C	1.9186	11.4051	20.0862
C	3.4383	7.6869	20.3585
Ni	2.9028	21.9655	8.6245
O	1.4194	16.9018	4.0368
O	4.6360	14.1900	3.8035
O	5.7451	16.9345	5.1094
O	0.3079	14.0237	4.8721
N	3.7677	23.0794	7.1530
N	2.0951	20.6148	7.3471
C	3.5585	24.5371	5.2748
H	3.0266	24.8740	4.5628
C	4.8383	25.0218	5.4834
C	5.5898	24.4782	6.5283
H	0.2284	24.7688	6.6834
C	2.4254	19.0243	5.5902
H	2.9870	18.6724	4.9091
C	2.8617	20.0775	6.3875
H	3.7328	20.4294	6.2457
C	3.0629	23.5553	6.1132
H	2.1949	23.2059	5.9498
C	5.0180	23.5152	7.3328
H	5.5326	23.1470	8.0407
C	0.8614	20.0938	7.5475
H	0.3136	20.4707	8.2266
C	0.3657	19.0393	6.8077
H	5.7518	18.6912	6.9773
C	1.1715	18.4971	5.8009
C	5.3864	13.6417	4.6748
C	0.6533	17.3599	4.9471
Ni	6.1430	15.6047	3.4874
O	4.4320	20.6684	9.1739
O	1.3958	23.3802	8.9407
O	2.5049	20.6357	10.2465
O	3.3205	23.5465	10.0092
N	0.7551	14.4908	2.0158
N	5.3353	16.9554	2.2100
C	0.5459	13.0331	0.1377
H	-0.2136	12.6962	9.6999
C	1.8257	12.5484	0.3462
C	2.5772	13.0920	1.3911
C	5.6656	18.5459	0.4531
H	5.9996	18.8978	10.0462
C	6.1019	17.4927	1.2504
H	0.7202	17.1408	1.1086
C	0.0503	14.0149	0.9761
H	5.4351	14.3643	0.8127
C	2.0054	14.0550	2.1956
H	2.5200	14.4232	2.9035
C	4.1016	17.4764	2.4103
H	3.5538	17.0995	3.0895
C	3.6059	18.5309	1.6706
C	4.4117	19.0731	0.6637
C	2.1462	23.9285	9.8119
C	3.6659	20.2103	10.0842
Ni	2.6752	21.9655	18.8988
O	1.1918	16.9018	14.3110
O	4.4084	14.1900	14.0778
O	5.5175	16.9345	15.3837
O	0.0803	14.0237	15.1463
N	3.5401	23.0794	17.4272
N	1.8675	20.6148	17.6214
C	3.3310	24.5371	15.5491
C	4.6107	25.0218	15.7577
C	5.3622	24.4782	16.8026
C	2.1978	19.0243	15.8645
C	2.6341	20.0775	16.6618
H	3.5052	20.4294	16.5200
C	2.8353	23.5553	16.3875
H	1.9673	23.2059	16.2241
C	4.7904	23.5152	17.6070
H	5.3050	23.1470	18.3149
C	0.6338	20.0938	17.8218
H	0.0860	20.4707	18.5009
C	0.1381	19.0393	17.0820
C	0.9439	18.4971	16.0751
C	5.1588	13.6417	14.9491
C	0.4257	17.3599	15.2213
Ni	5.9154	15.6047	13.7617
O	4.2044	20.6684	19.4482
O	1.1682	23.3802	19.2150
O	2.2773	20.6357	20.5208
O	3.0929	23.5465	20.2835
N	0.5275	14.4908	12.2901
N	5.1077	16.9554	12.4843
C	0.3184	13.0331	10.4120
H	-0.4412	12.6962	19.9742
C	1.5981	12.5484	10.6205
C	2.3496	13.0920	11.6654
C	5.4380	18.5459	10.7274
H	5.7720	18.8978	20.3205
C	5.8743	17.4927	11.5247
H	0.4926	17.1408	11.3829
C	-0.1773	14.0149	11.2503
H	5.2075	14.3643	11.0870
C	1.7778	14.0550	12.4699
H	2.2924	14.4232	13.1778
C	3.8740	17.4764	12.6846
H	3.3262	17.0995	13.3638
C	3.3783	18.5309	11.9449
C	4.1841	19.0731	10.9380
C	1.9186	23.9285	20.0862
C	3.4383	20.2103	20.3585
Ni	9.1556	9.4421	8.6245
O	7.6722	4.3784	4.0368
O	10.8888	1.6666	3.8035
O	11.9979	4.4111	5.1094
O	6.5607	1.5003	4.8721
N	10.0205	10.5560	7.1530
N	8.3479	8.0914	7.3471
C	9.8113	12.0137	5.2748
C	11.0911	12.4984	5.4834
C	11.8426	11.9548	6.5283
C	8.6782	6.5009	5.5902
H	9.2398	6.1490	4.9091
C	9.1145	7.5541	6.3875
H	9.9856	7.9060	6.2457
C	9.3157	11.0319	6.1132
H	8.4477	10.6825	5.9498
C	11.2708	10.9918	7.3328
H	11.7854	10.6236	8.0407
C	7.1142	7.5704	7.5475
H	6.5664	7.9473	8.2266
C	6.6185	6.5159	6.8077
C	7.4243	5.9737	5.8009
C	11.6392	1.1183	4.6748
C	6.9061	4.8365	4.9471
Ni	12.3958	3.0813	3.4874
O	10.6848	8.1450	9.1739
O	7.6486	10.8568	8.9407
O	8.7577	8.1123	10.2465
O	9.5733	11.0231	10.0092
N	7.0079	1.9674	2.0158
N	11.5881	4.4320	2.2100
C	6.7987	0.5097	0.1377
H	6.0392	0.1728	9.6999
C	8.0785	0.0250	0.3462
C	8.8300	0.5686	1.3911
H	9.7214	0.2780	1.5463
C	11.9184	6.0225	0.4531
C	12.3547	4.9693	1.2504
H	6.9730	4.6174	1.1086
C	6.3031	1.4915	0.9761
H	11.6879	1.8409	0.8127
C	8.2582	1.5316	2.1956
H	8.7728	1.8998	2.9035
C	10.3544	4.9530	2.4103
H	9.8066	4.5761	3.0895
C	9.8587	6.0075	1.6706
H	8.9920	6.3556	1.8401
C	10.6645	6.5497	0.6637
C	8.3990	11.4051	9.8119
C	9.9187	7.6869	10.0842
Ni	8.9280	9.4421	18.8988
O	7.4446	4.3784	14.3110
O	10.6612	1.6666	14.0778
O	11.7703	4.4111	15.3837
O	6.3331	1.5003	15.1463
N	9.7929	10.5560	17.4272
N	8.1203	8.0914	17.6214
C	9.5838	12.0137	15.5491
C	10.8635	12.4984	15.7577
C	11.6150	11.9548	16.8026
C	8.4506	6.5009	15.8645
C	8.8869	7.5541	16.6618
H	9.7580	7.9060	16.5200
C	9.0881	11.0319	16.3875
H	8.2201	10.6825	16.2241
C	11.0432	10.9918	17.6070
H	11.5578	10.6236	18.3149
C	6.8866	7.5704	17.8218
H	6.3388	7.9473	18.5009
C	6.3909	6.5159	17.0820
H	11.7770	6.1678	17.2515
C	7.1967	5.9737	16.0751
C	11.4116	1.1183	14.9491
C	6.6785	4.8365	15.2213
Ni	12.1682	3.0813	13.7617
O	10.4572	8.1450	19.4482
O	7.4210	10.8568	19.2150
O	8.5301	8.1123	20.5208
O	9.3457	11.0231	20.2835
N	6.7803	1.9674	12.2901
N	11.3605	4.4320	12.4843
C	6.5712	0.5097	10.4120
C	7.8509	0.0250	10.6205
C	8.6024	0.5686	11.6654
C	11.6908	6.0225	10.7274
C	12.1271	4.9693	11.5247
H	6.7454	4.6174	11.3829
C	6.0755	1.4915	11.2503
H	11.4603	1.8409	11.0870
C	8.0306	1.5316	12.4699
H	8.5452	1.8998	13.1778
C	10.1268	4.9530	12.6846
H	9.5790	4.5761	13.3638
C	9.6311	6.0075	11.9449
H	8.7644	6.3556	12.1144
C	10.4369	6.5497	10.9380
C	8.1714	11.4051	20.0862
C	9.6911	7.6869	20.3585
Ni	9.1556	21.9655	8.6245
O	7.6722	16.9018	4.0368
O	10.8888	14.1900	3.8035
O	11.9979	16.9345	5.1094
O	6.5607	14.0237	4.8721
N	10.0205	23.0794	7.1530
N	8.3479	20.6148	7.3471
C	9.8113	24.5371	5.2748
C	11.0911	25.0218	5.4834
C	11.8426	24.4782	6.5283
C	8.6782	19.0243	5.5902
C	9.1145	20.0775	6.3875
H	9.9856	20.4294	6.2457
C	9.3157	23.5553	6.1132
H	8.4477	23.2059	5.9498
C	11.2708	23.5152	7.3328
H	11.7854	23.1470	8.0407
C	7.1142	20.0938	7.5475
H	6.5664	20.4707	8.2266
C	6.6185	19.0393	6.8077
C	7.4243	18.4971	5.8009
C	11.6392	13.6417	4.6748
C	6.9061	17.3599	4.9471
Ni	12.3958	15.6047	3.4874
O	10.6848	20.6684	9.1739
O	7.6486	23.3802	8.9407
O	8.7577	20.6357	10.2465
O	9.5733	23.5465	10.0092
N	7.0079	14.4908	2.0158
N	11.5881	16.9554	2.2100
C	6.7987	13.0331	0.1377
H	6.0392	12.6962	9.6999
C	8.0785	12.5484	0.3462
C	8.8300	13.0920	1.3911
H	9.7214	12.8014	1.5463
C	11.9184	18.5459	0.4531
C	12.3547	17.4927	1.2504
H	6.9730	17.1408	1.1086
C	6.3031	14.0149	0.9761
H	11.6879	14.3643	0.8127
C	8.2582	14.0550	2.1956
H	8.7728	14.4232	2.9035
C	10.3544	17.4764	2.4103
H	9.8066	17.0995	3.0895
C	9.8587	18.5309	1.6706
C	10.6645	19.0731	0.6637
C	8.3990	23.9285	9.8119
C	9.9187	20.2103	10.0842
Ni	8.9280	21.9655	18.8988
O	7.4446	16.9018	14.3110
O	10.6612	14.1900	14.0778
O	11.7703	16.9345	15.3837
O	6.3331	14.0237	15.1463
N	9.7929	23.0794	17.4272
N	8.1203	20.6148	17.6214
C	9.5838	24.5371	15.5491
H	9.0518	24.8740	14.8371
C	10.8635	25.0218	15.7577
C	11.6150	24.4782	16.8026
H	6.2536	24.7688	16.9577
C	8.4506	19.0243	15.8645
H	9.0122	18.6724	15.1833
C	8.8869	20.0775	16.6618
H	9.7580	20.4294	16.5200
C	9.0881	23.5553	16.3875
H	8.2201	23.2059	16.2241
C	11.0432	23.5152	17.6070
H	11.5578	23.1470	18.3149
C	6.8866	20.0938	17.8218
H	6.3388	20.4707	18.5009
C	6.3909	19.0393	17.0820
H	11.7770	18.6912	17.2515
C	7.1967	18.4971	16.0751
C	11.4116	13.6417	14.9491
C	6.6785	17.3599	15.2213
Ni	12.1682	15.6047	13.7617
O	10.4572	20.6684	19.4482
O	7.4210	23.3802	19.2150
O	8.5301	20.6357	20.5208
O	9.3457	23.5465	20.2835
N	6.7803	14.4908	12.2901
N	11.3605	16.9554	12.4843
C	6.5712	13.0331	10.4120
C	7.8509	12.5484	10.6205
C	8.6024	13.0920	11.6654
C	11.6908	18.5459	10.7274
H	12.0248	18.8978	20.3205
C	12.1271	17.4927	11.5247
H	6.7454	17.1408	11.3829
C	6.0755	14.0149	11.2503
H	11.4603	14.3643	11.0870
C	8.0306	14.0550	12.4699
H	8.5452	14.4232	13.1778
C	10.1268	17.4764	12.6846
H	9.5790	17.0995	13.3638
C	9.6311	18.5309	11.9449
H	8.7644	18.8790	12.1144
C	10.4369	19.0731	10.9380
C	8.1714	23.9285	20.0862
C	9.6911	20.2103	20.3585
O	6.8750	12.3916	6.7277
C	7.7283	11.9437	7.7177
C	9.0637	12.6761	7.6010
H	7.8975	10.8504	7.5996
H	7.2831	12.1485	8.7165
C	10.0439	12.2153	8.6758
H	8.8952	13.7698	7.7085
H	9.5053	12.4808	6.5995
H	9.6319	12.4193	9.6872
H	11.0026	12.7644	8.5651
H	10.2435	11.1271	8.5755
O	-0.8778	5.9938	7.0309
C	-1.7704	6.4338	7.9891
C	-3.0430	5.5921	7.9164
H	-2.0246	7.5007	7.8022
H	-1.3172	6.3279	8.9997
C	-4.0638	6.0401	8.9583
H	-2.7894	4.5240	8.0929
H	-3.4919	5.6887	6.9038
H	-3.6439	5.9331	9.9813
H	-4.9754	5.4110	8.8806
H	-4.3480	7.1007	8.7894
O	-0.2082	0.0078	-0.8967
C	-1.4939	0.3972	-1.2190
C	-1.9731	-0.4005	-2.4305
H	-1.5059	1.4820	-1.4655
H	-2.1713	0.2007	-0.3586
C	-3.3927	-0.0059	-2.8272
H	-1.9521	-1.4856	-2.1895
H	-1.2913	-0.2132	-3.2885
H	-4.0964	-0.2035	-1.9906
H	-3.7118	-0.6014	-3.7084
H	-3.4341	1.0721	-3.0924
O	2.3624	6.5296	1.8938
C	1.4698	6.0896	2.8520
C	0.1972	6.9313	2.7793
H	1.2156	5.0227	2.6651
H	1.9230	6.1955	3.8625
C	-0.8236	6.4833	3.8212
H	0.4508	7.9994	2.9557
H	-0.2517	6.8347	1.7667
H	-0.4037	6.5903	4.8441
H	-1.7352	7.1124	3.7435
H	-1.1078	5.4227	3.6522
O	6.6474	12.3916	17.0020
C	7.5007	11.9437	17.9919
C	8.8361	12.6761	17.8753
H	7.6699	10.8504	17.8739
H	7.0555	12.1485	18.9908
C	9.8163	12.2153	18.9501
H	8.6676	13.7698	17.9828
H	9.2777	12.4808	16.8738
H	9.4043	12.4193	19.9615
H	10.7750	12.7644	18.8393
H	10.0159	11.1271	18.8498
O	3.0004	5.9845	14.8752
C	4.2736	6.4162	14.5573
C	4.8153	5.5788	13.4003
H	4.9404	6.2977	15.4401
H	4.2412	7.4858	14.2529
C	6.2236	6.0180	13.0104
H	4.1446	5.6879	12.5203
H	4.8389	4.5082	13.6992
H	6.2212	7.0811	12.6881
H	6.5890	5.3923	12.1691
H	6.9172	5.8986	13.8699
O	-0.4358	0.0078	9.3775
C	-1.7215	0.3972	9.0552
C	-2.2007	-0.4005	7.8438
H	-1.7335	1.4820	8.8088
H	-2.3989	0.2007	9.9157
C	-3.6203	-0.0059	7.4471
H	-2.1797	-1.4856	8.0848
H	-1.5189	-0.2132	6.9857
H	-4.3240	-0.2035	8.2837
H	-3.9394	-0.6014	6.5659
H	-3.6617	1.0721	7.1819
O	2.1348	6.5296	12.1680
C	1.2422	6.0896	13.1263
C	-0.0304	6.9313	13.0536
H	0.9880	5.0227	12.9394
H	1.6954	6.1955	14.1368
C	-1.0512	6.4833	14.0955
H	0.2232	7.9994	13.2300
H	-0.4793	6.8347	12.0410
H	-0.6313	6.5903	15.1184
H	-1.9628	7.1124	14.0178
H	-1.3354	5.4227	13.9265
O	6.8750	24.9149	6.7277
C	7.7284	24.4669	7.7175
C	9.0637	25.1994	7.6009
H	7.2832	24.6714	8.7164
H	7.8976	23.3736	7.5992
C	10.0441	24.7383	8.6755
H	9.5052	25.0044	6.5993
H	8.8952	26.2930	7.7088
H	10.2438	23.6502	8.5748
H	11.0028	25.2875	8.5648
H	9.6322	24.9419	9.6869
O	-0.8778	18.5172	7.0309
C	-1.7704	18.9572	7.9891
C	-3.0430	18.1155	7.9164
H	-2.0246	20.0241	7.8022
H	-1.3172	18.8513	8.9997
C	-4.0638	18.5635	8.9583
H	-2.7894	17.0474	8.0929
H	-3.4919	18.2121	6.9038
H	-3.6439	18.4565	9.9813
H	-4.9754	17.9344	8.8806
H	-4.3480	19.6241	8.7894
O	3.8624	12.6553	1.5906
C	4.7158	13.1033	2.5803
C	6.0511	12.3708	2.4638
H	4.2706	12.8988	3.5793
H	4.8850	14.1966	2.4620
C	7.0315	12.8319	3.5383
H	6.4926	12.5658	1.4622
H	5.8826	11.2772	2.5716
H	7.2312	13.9200	3.4376
H	7.9902	12.2827	3.4276
H	6.6196	12.6283	4.5498
O	2.3624	19.0530	1.8938
C	1.4698	18.6130	2.8520
C	0.1972	19.4547	2.7793
H	1.2156	17.5461	2.6651
H	1.9230	18.7189	3.8625
C	-0.8236	19.0067	3.8212
H	0.4508	20.5228	2.9557
H	-0.2517	19.3581	1.7667
H	-0.4037	19.1137	4.8441
H	-1.7352	19.6358	3.7435
H	-1.1078	17.9461	3.6522
O	2.5768	25.0390	14.5147
C	1.2911	24.6496	14.1924
C	0.8119	25.4473	12.9809
H	1.2791	23.5648	13.9459
H	0.6137	24.8461	15.0528
C	-0.6077	25.0527	12.5842
H	0.8329	26.5324	13.2220
H	1.4937	25.2600	12.1229
H	-1.3114	25.2503	13.4208
H	-0.9268	25.6482	11.7030
H	-0.6491	23.9747	12.3190
O	3.0004	18.5079	14.8752
C	4.2736	18.9396	14.5573
C	4.8153	18.1022	13.4003
H	4.9404	18.8211	15.4401
H	4.2412	20.0092	14.2529
C	6.2236	18.5414	13.0104
H	4.1446	18.2113	12.5203
H	4.8389	17.0316	13.6992
H	6.2212	19.6045	12.6881
H	6.5890	17.9157	12.1691
H	6.9172	18.4220	13.8699
O	3.6348	12.6553	11.8649
C	4.4882	13.1033	12.8546
C	5.8235	12.3708	12.7380
H	4.0430	12.8988	13.8536
H	4.6574	14.1966	12.7363
C	6.8039	12.8319	13.8126
H	6.2650	12.5658	11.7365
H	5.6550	11.2772	12.8459
H	7.0036	13.9200	13.7119
H	7.7626	12.2827	13.7019
H	6.3920	12.6283	14.8241
O	2.1348	19.0530	12.1680
C	1.2422	18.6130	13.1263
C	-0.0304	19.4547	13.0536
H	0.9880	17.5461	12.9394
H	1.6954	18.7189	14.1368
C	-1.0512	19.0067	14.0955
H	0.2232	20.5228	13.2300
H	-0.4793	19.3581	12.0410
H	-0.6313	19.1137	15.1184
H	-1.9628	19.6358	14.0178
H	-1.3354	17.9461	13.9265
O	9.0572	12.5156	4.2404
C	7.7715	12.1262	3.9181
C	7.2923	12.9239	2.7067
H	7.7595	11.0414	3.6717
H	7.0941	12.3227	4.7785
C	5.8727	12.5293	2.3100
H	7.3133	14.0090	2.9477
H	7.9741	12.7366	1.8486
H	5.1690	12.7269	3.1465
H	5.5536	13.1248	1.4288
H	5.8313	11.4513	2.0448
O	5.3750	5.9938	7.0309
C	4.4824	6.4338	7.9891
C	3.2098	5.5921	7.9164
H	4.2282	7.5007	7.8022
H	4.9356	6.3279	8.9997
C	2.1890	6.0401	8.9583
H	3.4634	4.5240	8.0929
H	2.7609	5.6887	6.9038
H	2.6089	5.9331	9.9813
H	1.2774	5.4110	8.8806
H	1.9048	7.1007	8.7894
O	6.0446	0.0078	-0.8967
C	4.7589	0.3972	-1.2190
C	4.2797	-0.4005	-2.4305
H	4.7469	1.4820	-1.4655
H	4.0815	0.2007	-0.3586
C	2.8601	-0.0059	-2.8272
H	4.3007	-1.4856	-2.1895
H	4.9615	-0.2132	-3.2885
H	2.1564	-0.2035	-1.9906
H	2.5410	-0.6014	-3.7084
H	2.8187	1.0721	-3.0924
O	12.7210	6.5389	-0.5363
C	13.9943	6.1074	-0.8539
C	14.5359	6.9447	-2.0110
H	13.9621	5.0377	-1.1582
H	14.6609	6.2261	0.0289
C	15.9444	6.5058	-2.4007
H	14.5593	8.0154	-1.7123
H	13.8654	6.8353	-2.8911
H	16.6379	6.6255	-1.5411
H	16.3097	7.1314	-3.2421
H	15.9423	5.4426	-2.7227
O	8.8296	12.5156	14.5147
C	7.5439	12.1262	14.1924
C	7.0647	12.9239	12.9809
H	7.5319	11.0414	13.9459
H	6.8665	12.3227	15.0528
C	5.6451	12.5293	12.5842
H	7.0857	14.0090	13.2220
H	7.7465	12.7366	12.1229
H	4.9414	12.7269	13.4208
H	5.3260	13.1248	11.7030
H	5.6037	11.4513	12.3190
O	9.2532	5.9845	14.8752
C	10.5266	6.4160	14.5575
C	11.0682	5.5787	13.4004
H	10.4943	7.4857	14.2532
H	11.1931	6.2973	15.4403
C	12.4766	6.0176	13.0108
H	11.0915	4.5080	13.6991
H	10.3976	5.6881	12.5203
H	13.1701	5.8979	13.8703
H	12.8419	5.3920	12.1693
H	12.4746	7.0808	12.6887
O	9.8876	0.1319	11.8649
C	10.7410	0.5799	12.8546
C	12.0763	-0.1526	12.7380
H	10.2958	0.3754	13.8536
H	10.9102	1.6732	12.7363
C	13.0567	0.3085	13.8126
H	12.5178	0.0424	11.7365
H	11.9078	-1.2462	12.8459
H	13.2564	1.3966	13.7119
H	14.0154	-0.2407	13.7019
H	12.6448	0.1049	14.8241
O	12.4934	6.5389	9.7380
C	13.7668	6.1074	9.4203
C	14.3083	6.9447	8.2633
H	13.7345	5.0377	9.1160
H	14.4333	6.2261	10.3032
C	15.7168	6.5058	7.8736
H	14.3317	8.0154	8.5620
H	13.6378	6.8353	7.3832
H	16.4103	6.6255	8.7332
H	16.0821	7.1314	7.0322
H	15.7148	5.4426	7.5515
O	9.0572	25.0390	4.2404
C	7.7715	24.6496	3.9181
C	7.2923	25.4473	2.7067
H	7.7595	23.5648	3.6717
H	7.0941	24.8461	4.7785
C	5.8727	25.0527	2.3100
H	7.3133	26.5324	2.9477
H	7.9741	25.2600	1.8486
H	5.1690	25.2503	3.1465
H	5.5536	25.6482	1.4288
H	5.8313	23.9747	2.0448
O	9.4808	18.5079	4.6009
C	10.7541	18.9394	4.2832
C	11.2957	18.1021	3.1261
H	10.7219	20.0091	3.9789
H	11.4207	18.8207	5.1660
C	12.7042	18.5410	2.7365
H	11.3191	17.0314	3.4248
H	10.6252	18.2115	2.2461
H	13.3977	18.4213	3.5961
H	13.0695	17.9154	1.8951
H	12.7021	19.6042	2.4144
O	6.0446	12.5312	-0.8967
C	4.7589	12.9206	-1.2190
C	4.2797	12.1229	-2.4305
H	4.7469	14.0054	-1.4655
H	4.0815	12.7241	-0.3586
C	2.8601	12.5175	-2.8272
H	4.3007	11.0378	-2.1895
H	4.9615	12.3102	-3.2885
H	2.1564	12.3199	-1.9906
H	2.5410	11.9220	-3.7084
H	2.8187	13.5955	-3.0924
O	8.6152	19.0530	1.8938
C	7.7226	18.6130	2.8520
C	6.4500	19.4547	2.7793
H	7.4684	17.5461	2.6651
H	8.1758	18.7189	3.8625
C	5.4292	19.0067	3.8212
H	6.7036	20.5228	2.9557
H	6.0011	19.3581	1.7667
H	5.8491	19.1137	4.8441
H	4.5176	19.6358	3.7435
H	5.1450	17.9461	3.6522
O	12.9002	24.9150	17.0020
C	13.7535	24.4671	17.9919
C	15.0889	25.1995	17.8753
H	13.9227	23.3738	17.8739
H	13.3083	24.6719	18.9908
C	16.0691	24.7387	18.9501
H	14.9204	26.2932	17.9828
H	15.5305	25.0042	16.8738
H	15.6571	24.9427	19.9615
H	17.0278	25.2878	18.8393
H	16.2687	23.6505	18.8498
O	5.1474	18.5172	17.3052
C	4.2548	18.9572	18.2634
C	2.9822	18.1155	18.1907
H	4.0006	20.0241	18.0765
H	4.7080	18.8513	19.2740
C	1.9614	18.5635	19.2326
H	3.2358	17.0474	18.3672
H	2.5333	18.2121	17.1781
H	2.3813	18.4565	20.2555
H	1.0498	17.9344	19.1549
H	1.6772	19.6241	19.0636
O	9.8876	12.6553	11.8649
C	10.7410	13.1033	12.8546
C	12.0763	12.3708	12.7380
H	10.2958	12.8988	13.8536
H	10.9102	14.1966	12.7363
C	13.0567	12.8319	13.8126
H	12.5178	12.5658	11.7365
H	11.9078	11.2772	12.8459
H	13.2564	13.9200	13.7119
H	14.0154	12.2827	13.7019
H	12.6448	12.6283	14.8241
O	12.4934	19.0623	9.7380
C	13.7668	18.6308	9.4203
C	14.3083	19.4681	8.2633
H	13.7345	17.5611	9.1160
H	14.4333	18.7495	10.3032
C	15.7168	19.0292	7.8736
H	14.3317	20.5388	8.5620
H	13.6378	19.3587	7.3832
H	16.4103	19.1489	8.7332
H	16.0821	19.6548	7.0322
H	15.7148	17.9660	7.5515
