752

Ni	2.9028	9.4421	8.6245
O	1.4194	4.3784	4.0368
O	4.6360	1.6666	3.8035
O	5.7451	4.4111	5.1094
O	0.3079	1.5003	4.8721
N	3.7677	10.5560	7.1530
N	2.0951	8.0914	7.3471
C	3.5585	12.0137	5.2748
H	3.0266	12.3506	4.5628
C	4.8383	12.4984	5.4834
C	5.5898	11.9548	6.5283
H	0.2284	12.2454	6.6834
C	2.4254	6.5009	5.5902
H	2.9870	6.1490	4.9091
C	2.8617	7.5541	6.3875
H	3.7328	7.9060	6.2457
C	3.0629	11.0319	6.1132
H	2.1949	10.6825	5.9498
C	5.0180	10.9918	7.3328
C	0.8614	7.5704	7.5475
C	0.3657	6.5159	6.8077
H	5.7518	6.1678	6.9773
C	1.1715	5.9737	5.8009
C	5.3864	1.1183	4.6748
C	0.6533	4.8365	4.9471
Ni	6.1430	3.0813	3.4874
O	4.4320	8.1450	9.1739
O	1.3958	10.8568	8.9407
O	2.5049	8.1123	10.2465
O	3.3205	11.0231	10.0092
N	0.7551	1.9674	2.0158
N	5.3353	4.4320	2.2100
C	0.5459	0.5097	0.1377
H	-0.2136	0.1728	9.6999
C	1.8257	0.0250	0.3462
C	2.5772	0.5686	1.3911
H	3.4686	0.2780	1.5463
C	5.6656	6.0225	0.4531
H	5.9996	6.3744	10.0462
C	6.1019	4.9693	1.2504
C	0.0503	1.4915	0.9761
H	5.4351	1.8409	0.8127
C	2.0054	1.5316	2.1956
H	2.5200	1.8998	2.9035
C	4.1016	4.9530	2.4103
H	3.5538	4.5761	3.0895
C	3.6059	6.0075	1.6706
H	2.7392	6.3556	1.8401
C	4.4117	6.5497	0.6637
C	2.1462	11.4051	9.8119
C	3.6659	7.6869	10.0842
Ni	2.6752	9.4421	18.8988
O	1.1918	4.3784	14.3110
O	4.4084	1.6666	14.0778
O	5.5175	4.4111	15.3837
O	0.0803	1.5003	15.1463
N	3.5401	10.5560	17.4272
N	1.8675	8.0914	17.6214
C	3.3310	12.0137	15.5491
H	2.7990	12.3506	14.8371
C	4.6107	12.4984	15.7577
C	5.3622	11.9548	16.8026
H	0.0008	12.2454	16.9577
C	2.1978	6.5009	15.8645
H	2.7594	6.1490	15.1833
C	2.6341	7.5541	16.6618
H	3.5052	7.9060	16.5200
C	2.8353	11.0319	16.3875
H	1.9673	10.6825	16.2241
C	4.7904	10.9918	17.6070
C	0.6338	7.5704	17.8218
C	0.1381	6.5159	17.0820
H	5.5242	6.1678	17.2515
C	0.9439	5.9737	16.0751
C	5.1588	1.1183	14.9491
C	0.4257	4.8365	15.2213
Ni	5.9154	3.0813	13.7617
O	4.2044	8.1450	19.4482
O	1.1682	10.8568	19.2150
O	2.2773	8.1123	20.5208
O	3.0929	11.0231	20.2835
N	0.5275	1.9674	12.2901
N	5.1077	4.4320	12.4843
C	0.3184	0.5097	10.4120
H	-0.4412	0.1728	19.9742
C	1.5981	0.0250	10.6205
C	2.3496	0.5686	11.6654
H	3.2410	0.2780	11.8206
C	5.4380	6.0225	10.7274
H	5.7720	6.3744	20.3205
C	5.8743	4.9693	11.5247
C	-0.1773	1.4915	11.2503
C	1.7778	1.5316	12.4699
H	2.2924	1.8998	13.1778
C	3.8740	4.9530	12.6846
C	3.3783	6.0075	11.9449
H	2.5116	6.3556	12.1144
C	4.1841	6.5497	10.9380
C	1.9186	11.4051	20.0862
C	3.4383	7.6869	20.3585
Ni	2.9028	21.9655	8.6245
O	1.4194	16.9018	4.0368
O	4.6360	14.1900	3.8035
O	5.7451	16.9345	5.1094
O	0.3079	14.0237	4.8721
N	3.7677	23.0794	7.1530
N	2.0951	20.6148	7.3471
C	3.5585	24.5371	5.2748
H	3.0266	24.8740	4.5628
C	4.8383	25.0218	5.4834
C	5.5898	24.4782	6.5283
H	0.2284	24.7688	6.6834
C	2.4254	19.0243	5.5902
H	2.9870	18.6724	4.9091
C	2.8617	20.0775	6.3875
H	3.7328	20.4294	6.2457
C	3.0629	23.5553	6.1132
H	2.1949	23.2059	5.9498
C	5.0180	23.5152	7.3328
C	0.8614	20.0938	7.5475
C	0.3657	19.0393	6.8077
H	5.7518	18.6912	6.9773
C	1.1715	18.4971	5.8009
C	5.3864	13.6417	4.6748
C	0.6533	17.3599	4.9471
Ni	6.1430	15.6047	3.4874
O	4.4320	20.6684	9.1739
O	1.3958	23.3802	8.9407
O	2.5049	20.6357	10.2465
O	3.3205	23.5465	10.0092
N	0.7551	14.4908	2.0158
N	5.3353	16.9554	2.2100
C	0.5459	13.0331	0.1377
H	-0.2136	12.6962	9.6999
C	1.8257	12.5484	0.3462
C	2.5772	13.0920	1.3911
H	3.4686	12.8014	1.5463
C	5.6656	18.5459	0.4531
H	5.9996	18.8978	10.0462
C	6.1019	17.4927	1.2504
C	0.0503	14.0149	0.9761
C	2.0054	14.0550	2.1956
C	4.1016	17.4764	2.4103
H	3.5538	17.0995	3.0895
C	3.6059	18.5309	1.6706
H	2.7392	18.8790	1.8401
C	4.4117	19.0731	0.6637
C	2.1462	23.9285	9.8119
C	3.6659	20.2103	10.0842
Ni	2.6752	21.9655	18.8988
O	1.1918	16.9018	14.3110
O	4.4084	14.1900	14.0778
O	5.5175	16.9345	15.3837
O	0.0803	14.0237	15.1463
N	3.5401	23.0794	17.4272
N	1.8675	20.6148	17.6214
C	3.3310	24.5371	15.5491
H	2.7990	24.8740	14.8371
C	4.6107	25.0218	15.7577
C	5.3622	24.4782	16.8026
H	0.0008	24.7688	16.9577
C	2.1978	19.0243	15.8645
H	2.7594	18.6724	15.1833
C	2.6341	20.0775	16.6618
C	2.8353	23.5553	16.3875
H	1.9673	23.2059	16.2241
C	4.7904	23.5152	17.6070
C	0.6338	20.0938	17.8218
H	0.0860	20.4707	18.5009
C	0.1381	19.0393	17.0820
H	5.5242	18.6912	17.2515
C	0.9439	18.4971	16.0751
C	5.1588	13.6417	14.9491
C	0.4257	17.3599	15.2213
Ni	5.9154	15.6047	13.7617
O	4.2044	20.6684	19.4482
O	1.1682	23.3802	19.2150
O	2.2773	20.6357	20.5208
O	3.0929	23.5465	20.2835
N	0.5275	14.4908	12.2901
N	5.1077	16.9554	12.4843
C	0.3184	13.0331	10.4120
H	-0.4412	12.6962	19.9742
C	1.5981	12.5484	10.6205
C	2.3496	13.0920	11.6654
H	3.2410	12.8014	11.8206
C	5.4380	18.5459	10.7274
H	5.7720	18.8978	20.3205
C	5.8743	17.4927	11.5247
H	0.4926	17.1408	11.3829
C	-0.1773	14.0149	11.2503
C	1.7778	14.0550	12.4699
C	3.8740	17.4764	12.6846
C	3.3783	18.5309	11.9449
H	2.5116	18.8790	12.1144
C	4.1841	19.0731	10.9380
C	1.9186	23.9285	20.0862
C	3.4383	20.2103	20.3585
Ni	9.1556	9.4421	8.6245
O	7.6722	4.3784	4.0368
O	10.8888	1.6666	3.8035
O	11.9979	4.4111	5.1094
O	6.5607	1.5003	4.8721
N	10.0205	10.5560	7.1530
N	8.3479	8.0914	7.3471
C	9.8113	12.0137	5.2748
H	9.2794	12.3506	4.5628
C	11.0911	12.4984	5.4834
C	11.8426	11.9548	6.5283
H	6.4812	12.2454	6.6834
C	8.6782	6.5009	5.5902
H	9.2398	6.1490	4.9091
C	9.1145	7.5541	6.3875
H	9.9856	7.9060	6.2457
C	9.3157	11.0319	6.1132
C	11.2708	10.9918	7.3328
H	11.7854	10.6236	8.0407
C	7.1142	7.5704	7.5475
C	6.6185	6.5159	6.8077
H	12.0046	6.1678	6.9773
C	7.4243	5.9737	5.8009
C	11.6392	1.1183	4.6748
C	6.9061	4.8365	4.9471
Ni	12.3958	3.0813	3.4874
O	10.6848	8.1450	9.1739
O	7.6486	10.8568	8.9407
O	8.7577	8.1123	10.2465
O	9.5733	11.0231	10.0092
N	7.0079	1.9674	2.0158
N	11.5881	4.4320	2.2100
C	6.7987	0.5097	0.1377
H	6.0392	0.1728	9.6999
C	8.0785	0.0250	0.3462
C	8.8300	0.5686	1.3911
H	9.7214	0.2780	1.5463
C	11.9184	6.0225	0.4531
H	12.2524	6.3744	10.0462
C	12.3547	4.9693	1.2504
C	6.3031	1.4915	0.9761
C	8.2582	1.5316	2.1956
C	10.3544	4.9530	2.4103
H	9.8066	4.5761	3.0895
C	9.8587	6.0075	1.6706
H	8.9920	6.3556	1.8401
C	10.6645	6.5497	0.6637
C	8.3990	11.4051	9.8119
C	9.9187	7.6869	10.0842
Ni	8.9280	9.4421	18.8988
O	7.4446	4.3784	14.3110
O	10.6612	1.6666	14.0778
O	11.7703	4.4111	15.3837
O	6.3331	1.5003	15.1463
N	9.7929	10.5560	17.4272
N	8.1203	8.0914	17.6214
C	9.5838	12.0137	15.5491
H	9.0518	12.3506	14.8371
C	10.8635	12.4984	15.7577
C	11.6150	11.9548	16.8026
H	6.2536	12.2454	16.9577
C	8.4506	6.5009	15.8645
H	9.0122	6.1490	15.1833
C	8.8869	7.5541	16.6618
H	9.7580	7.9060	16.5200
C	9.0881	11.0319	16.3875
H	8.2201	10.6825	16.2241
C	11.0432	10.9918	17.6070
C	6.8866	7.5704	17.8218
C	6.3909	6.5159	17.0820
H	11.7770	6.1678	17.2515
C	7.1967	5.9737	16.0751
C	11.4116	1.1183	14.9491
C	6.6785	4.8365	15.2213
Ni	12.1682	3.0813	13.7617
O	10.4572	8.1450	19.4482
O	7.4210	10.8568	19.2150
O	8.5301	8.1123	20.5208
O	9.3457	11.0231	20.2835
N	6.7803	1.9674	12.2901
N	11.3605	4.4320	12.4843
C	6.5712	0.5097	10.4120
H	5.8116	0.1728	19.9742
C	7.8509	0.0250	10.6205
C	8.6024	0.5686	11.6654
H	9.4938	0.2780	11.8206
C	11.6908	6.0225	10.7274
H	12.0248	6.3744	20.3205
C	12.1271	4.9693	11.5247
H	6.7454	4.6174	11.3829
C	6.0755	1.4915	11.2503
C	8.0306	1.5316	12.4699
H	8.5452	1.8998	13.1778
C	10.1268	4.9530	12.6846
H	9.5790	4.5761	13.3638
C	9.6311	6.0075	11.9449
H	8.7644	6.3556	12.1144
C	10.4369	6.5497	10.9380
C	8.1714	11.4051	20.0862
C	9.6911	7.6869	20.3585
Ni	9.1556	21.9655	8.6245
O	7.6722	16.9018	4.0368
O	10.8888	14.1900	3.8035
O	11.9979	16.9345	5.1094
O	6.5607	14.0237	4.8721
N	10.0205	23.0794	7.1530
N	8.3479	20.6148	7.3471
C	9.8113	24.5371	5.2748
H	9.2794	24.8740	4.5628
C	11.0911	25.0218	5.4834
C	11.8426	24.4782	6.5283
H	6.4812	24.7688	6.6834
C	8.6782	19.0243	5.5902
H	9.2398	18.6724	4.9091
C	9.1145	20.0775	6.3875
H	9.9856	20.4294	6.2457
C	9.3157	23.5553	6.1132
C	11.2708	23.5152	7.3328
H	11.7854	23.1470	8.0407
C	7.1142	20.0938	7.5475
C	6.6185	19.0393	6.8077
H	12.0046	18.6912	6.9773
C	7.4243	18.4971	5.8009
C	11.6392	13.6417	4.6748
C	6.9061	17.3599	4.9471
Ni	12.3958	15.6047	3.4874
O	10.6848	20.6684	9.1739
O	7.6486	23.3802	8.9407
O	8.7577	20.6357	10.2465
O	9.5733	23.5465	10.0092
N	7.0079	14.4908	2.0158
N	11.5881	16.9554	2.2100
C	6.7987	13.0331	0.1377
H	6.0392	12.6962	9.6999
C	8.0785	12.5484	0.3462
C	8.8300	13.0920	1.3911
H	9.7214	12.8014	1.5463
C	11.9184	18.5459	0.4531
H	12.2524	18.8978	10.0462
C	12.3547	17.4927	1.2504
C	6.3031	14.0149	0.9761
H	11.6879	14.3643	0.8127
C	8.2582	14.0550	2.1956
H	8.7728	14.4232	2.9035
C	10.3544	17.4764	2.4103
H	9.8066	17.0995	3.0895
C	9.8587	18.5309	1.6706
H	8.9920	18.8790	1.8401
C	10.6645	19.0731	0.6637
C	8.3990	23.9285	9.8119
C	9.9187	20.2103	10.0842
Ni	8.9280	21.9655	18.8988
O	7.4446	16.9018	14.3110
O	10.6612	14.1900	14.0778
O	11.7703	16.9345	15.3837
O	6.3331	14.0237	15.1463
N	9.7929	23.0794	17.4272
N	8.1203	20.6148	17.6214
C	9.5838	24.5371	15.5491
H	9.0518	24.8740	14.8371
C	10.8635	25.0218	15.7577
C	11.6150	24.4782	16.8026
H	6.2536	24.7688	16.9577
C	8.4506	19.0243	15.8645
H	9.0122	18.6724	15.1833
C	8.8869	20.0775	16.6618
C	9.0881	23.5553	16.3875
H	8.2201	23.2059	16.2241
C	11.0432	23.5152	17.6070
C	6.8866	20.0938	17.8218
H	6.3388	20.4707	18.5009
C	6.3909	19.0393	17.0820
H	11.7770	18.6912	17.2515
C	7.1967	18.4971	16.0751
C	11.4116	13.6417	14.9491
C	6.6785	17.3599	15.2213
Ni	12.1682	15.6047	13.7617
O	10.4572	20.6684	19.4482
O	7.4210	23.3802	19.2150
O	8.5301	20.6357	20.5208
O	9.3457	23.5465	20.2835
N	6.7803	14.4908	12.2901
N	11.3605	16.9554	12.4843
C	6.5712	13.0331	10.4120
H	5.8116	12.6962	19.9742
C	7.8509	12.5484	10.6205
C	8.6024	13.0920	11.6654
H	9.4938	12.8014	11.8206
C	11.6908	18.5459	10.7274
H	12.0248	18.8978	20.3205
C	12.1271	17.4927	11.5247
H	6.7454	17.1408	11.3829
C	6.0755	14.0149	11.2503
H	11.4603	14.3643	11.0870
C	8.0306	14.0550	12.4699
H	8.5452	14.4232	13.1778
C	10.1268	17.4764	12.6846
C	9.6311	18.5309	11.9449
H	8.7644	18.8790	12.1144
C	10.4369	19.0731	10.9380
C	8.1714	23.9285	20.0862
C	9.6911	20.2103	20.3585
O	5.8116	10.4722	8.3712
C	5.4080	9.5056	9.2720
C	6.5516	9.2112	10.2410
H	4.5268	9.8715	9.8441
H	5.1401	8.5738	8.7262
C	6.1546	8.1464	11.2592
H	7.4366	8.8551	9.6700
H	6.8275	10.1436	10.7801
H	5.8935	7.1975	10.7438
H	7.0043	7.9548	11.9478
H	5.2829	8.4892	11.8566
O	0.0273	8.1054	8.5440
C	0.3527	9.1571	9.3787
C	-0.8188	9.4351	10.3188
H	0.5604	10.0662	8.7719
H	1.2513	8.8939	9.9795
C	-0.5079	10.5920	11.2640
H	-1.0344	8.5244	10.9189
H	-1.7204	9.6884	9.7197
H	0.3792	10.3528	11.8885
H	-1.3761	10.7694	11.9330
H	-0.3084	11.5197	10.6864
O	-1.2342	1.9829	0.7009
C	-1.8848	2.9599	1.4295
C	-3.2592	3.2160	0.8138
H	-2.0111	2.6207	2.4815
H	-1.2914	3.9007	1.4075
C	-4.0199	4.2907	1.5849
H	-3.1354	3.5453	-0.2409
H	-3.8500	2.2743	0.8256
H	-3.4571	5.2484	1.5696
H	-5.0124	4.4540	1.1145
H	-4.1735	3.9743	2.6387
O	7.3948	4.4819	1.0095
C	7.9922	3.4454	1.7004
C	9.3962	3.2132	1.1451
H	7.3905	2.5177	1.5775
H	8.0626	3.7064	2.7796
C	10.1001	2.0746	1.8775
H	9.9959	4.1425	1.2578
H	9.3285	2.9621	0.0641
H	10.1974	2.3124	2.9583
H	11.1157	1.9303	1.4523
H	9.5284	1.1291	1.7617
O	5.5840	10.4722	18.6455
C	5.1804	9.5058	19.5464
C	6.3239	9.2113	20.5154
H	4.9122	8.5740	19.0008
H	4.2992	9.8720	20.1186
C	5.9268	8.1468	21.5338
H	6.6001	10.1438	21.0542
H	7.2088	8.8549	19.9443
H	5.0553	8.4899	22.1313
H	6.7766	7.9551	22.2223
H	5.6654	7.1979	21.0187
O	-0.2003	8.1054	18.8183
C	0.1250	9.1572	19.6528
C	-1.0464	9.4352	20.5930
H	1.0237	8.8943	20.2536
H	0.3325	10.0663	19.0459
C	-0.7357	10.5923	21.5379
H	-1.9482	9.6882	19.9940
H	-1.2618	8.5245	21.1933
H	-0.5365	11.5200	20.9601
H	-1.6039	10.7697	22.2070
H	0.1516	10.3535	22.1623
O	-1.4618	1.9829	10.9752
C	-2.1124	2.9599	11.7037
C	-3.4868	3.2160	11.0881
H	-2.2387	2.6207	12.7558
H	-1.5190	3.9007	11.6818
C	-4.2475	4.2907	11.8592
H	-3.3630	3.5453	10.0334
H	-4.0776	2.2743	11.0999
H	-3.6847	5.2484	11.8438
H	-5.2400	4.4540	11.3887
H	-4.4011	3.9743	12.9129
O	3.0399	4.4180	13.6812
C	3.3652	3.3662	14.5157
C	2.1938	3.0882	15.4559
H	4.2639	3.6291	15.1165
H	3.5727	2.4571	13.9087
C	2.5045	1.9311	16.4008
H	1.2920	2.8352	14.8568
H	1.9784	3.9989	16.0561
H	2.7037	1.0034	15.8229
H	1.6363	1.7537	17.0699
H	3.3918	2.1699	17.0252
O	5.8116	22.9956	8.3712
C	5.4080	22.0290	9.2720
C	6.5516	21.7346	10.2410
H	4.5268	22.3949	9.8441
H	5.1401	21.0972	8.7262
C	6.1546	20.6698	11.2592
H	7.4366	21.3785	9.6700
H	6.8275	22.6670	10.7801
H	5.8935	19.7209	10.7438
H	7.0043	20.4782	11.9478
H	5.2829	21.0126	11.8566
O	0.0273	20.6288	8.5440
C	0.3527	21.6805	9.3787
C	-0.8188	21.9585	10.3188
H	0.5604	22.5896	8.7719
H	1.2513	21.4173	9.9795
C	-0.5079	23.1154	11.2640
H	-1.0344	21.0478	10.9189
H	-1.7204	22.2118	9.7197
H	0.3792	22.8762	11.8885
H	-1.3761	23.2928	11.9330
H	-0.3084	24.0431	10.6864
O	2.7990	14.5746	3.2341
C	2.3953	15.5410	4.1350
C	3.5389	15.8355	5.1040
H	2.1272	16.4728	3.5893
H	1.5142	15.1748	4.7071
C	3.1418	16.9000	6.1224
H	3.8151	14.9030	5.6428
H	4.4238	16.1919	4.5329
H	2.2703	16.5569	6.7199
H	3.9916	17.0917	6.8109
H	2.8804	17.8489	5.6072
O	7.3948	17.0053	1.0095
C	7.9922	15.9688	1.7004
C	9.3962	15.7366	1.1451
H	7.3905	15.0411	1.5775
H	8.0626	16.2298	2.7796
C	10.1001	14.5980	1.8775
H	9.9959	16.6659	1.2578
H	9.3285	15.4855	0.0641
H	10.1974	14.8358	2.9583
H	11.1157	14.4537	1.4523
H	9.5284	13.6525	1.7617
O	5.5840	22.9956	18.6455
C	5.1804	22.0290	19.5462
C	6.3240	21.7346	20.5153
H	4.2992	22.3949	20.1184
H	4.9125	21.0972	19.0004
C	5.9270	20.6698	21.5335
H	7.2090	21.3785	19.9443
H	6.5999	22.6670	21.0544
H	5.6659	19.7209	21.0181
H	6.7767	20.4782	22.2221
H	5.0554	21.0126	22.1309
O	3.9270	20.5649	16.4209
C	4.5244	21.6014	17.1118
C	5.9284	21.8336	16.5565
H	3.9227	22.5291	16.9889
H	4.5948	21.3404	18.1910
C	6.6323	22.9722	17.2889
H	6.5281	20.9043	16.6692
H	5.8607	22.0847	15.4755
H	6.7297	22.7344	18.3697
H	7.6479	23.1165	16.8637
H	6.0606	23.9177	17.1731
O	2.5714	14.5746	13.5084
C	2.1677	15.5410	14.4093
C	3.3113	15.8355	15.3782
H	1.8996	16.4728	13.8636
H	1.2866	15.1748	14.9814
C	2.9142	16.9000	16.3967
H	3.5875	14.9030	15.9171
H	4.1962	16.1919	14.8072
H	2.0427	16.5569	16.9942
H	3.7640	17.0917	17.0852
H	2.6528	17.8489	15.8815
O	3.0399	16.9414	13.6812
C	3.3652	15.8896	14.5157
C	2.1938	15.6116	15.4559
H	4.2639	16.1525	15.1165
H	3.5727	14.9805	13.9087
C	2.5045	14.4545	16.4008
H	1.2920	15.3586	14.8568
H	1.9784	16.5223	16.0561
H	2.7037	13.5268	15.8229
H	1.6363	14.2771	17.0699
H	3.3918	14.6933	17.0252
O	8.0312	10.5405	5.8381
C	7.3804	9.5637	6.5668
C	6.0062	9.3075	5.9510
H	7.9738	8.6228	6.5451
H	7.2541	9.9032	7.6187
C	5.2453	8.2331	6.7224
H	5.4154	10.2493	5.9625
H	6.1301	8.9779	4.8965
H	5.0916	8.5499	7.7760
H	4.2529	8.0697	6.2519
H	5.8080	7.2753	6.7074
O	6.2801	8.1054	8.5440
C	6.6054	9.1572	9.3786
C	5.4340	9.4352	10.3187
H	7.5041	8.8943	9.9793
H	6.8129	10.0663	8.7716
C	5.7447	10.5923	11.2637
H	4.5322	9.6882	9.7197
H	5.2186	8.5245	10.9190
H	5.9439	11.5200	10.6858
H	4.8765	10.7697	11.9327
H	6.6320	10.3535	11.8880
O	9.0518	2.0512	3.2341
C	8.6481	3.0176	4.1350
C	9.7917	3.3121	5.1040
H	8.3800	3.9494	3.5893
H	7.7670	2.6514	4.7071
C	9.3946	4.3766	6.1224
H	10.0679	2.3796	5.6428
H	10.6766	3.6685	4.5329
H	8.5231	4.0335	6.7199
H	10.2444	4.5683	6.8109
H	9.1332	5.3255	5.6072
O	13.6476	4.4819	1.0095
C	14.2450	3.4454	1.7004
C	15.6490	3.2132	1.1451
H	13.6433	2.5177	1.5775
H	14.3154	3.7064	2.7796
C	16.3529	2.0746	1.8775
H	16.2487	4.1425	1.2578
H	15.5813	2.9621	0.0641
H	16.4502	2.3124	2.9583
H	17.3685	1.9303	1.4523
H	15.7812	1.1291	1.7617
O	11.8368	10.4722	18.6455
C	11.4332	9.5058	19.5464
C	12.5767	9.2113	20.5154
H	11.1650	8.5740	19.0008
H	10.5520	9.8720	20.1186
C	12.1796	8.1468	21.5338
H	12.8529	10.1438	21.0542
H	13.4616	8.8549	19.9443
H	11.3081	8.4899	22.1313
H	13.0294	7.9551	22.2223
H	11.9182	7.1979	21.0187
O	6.0525	8.1054	18.8183
C	6.3778	9.1572	19.6528
C	5.2064	9.4352	20.5930
H	7.2765	8.8943	20.2536
H	6.5853	10.0663	19.0459
C	5.5171	10.5923	21.5379
H	4.3046	9.6882	19.9940
H	4.9910	8.5245	21.1933
H	5.7163	11.5200	20.9601
H	4.6489	10.7697	22.2070
H	6.4044	10.3535	22.1623
O	4.7910	1.9829	10.9752
C	4.1404	2.9599	11.7037
C	2.7660	3.2160	11.0881
H	4.0141	2.6207	12.7558
H	4.7338	3.9007	11.6818
C	2.0053	4.2907	11.8592
H	2.8898	3.5453	10.0334
H	2.1752	2.2743	11.0999
H	2.5681	5.2484	11.8438
H	1.0128	4.4540	11.3887
H	1.8517	3.9743	12.9129
O	13.4200	4.4819	11.2838
C	14.0174	3.4454	11.9746
C	15.4214	3.2132	11.4194
H	13.4157	2.5177	11.8517
H	14.0878	3.7064	13.0539
C	16.1253	2.0746	12.1518
H	16.0211	4.1425	11.5321
H	15.3537	2.9621	10.3384
H	16.2227	2.3124	13.2325
H	17.1409	1.9303	11.7266
H	15.5536	1.1291	12.0360
O	8.0312	23.0639	5.8381
C	7.3804	22.0871	6.5668
C	6.0062	21.8309	5.9510
H	7.9738	21.1462	6.5451
H	7.2541	22.4266	7.6187
C	5.2453	20.7565	6.7224
H	5.4154	22.7727	5.9625
H	6.1301	21.5013	4.8965
H	5.0916	21.0733	7.7760
H	4.2529	20.5931	6.2519
H	5.8080	19.7987	6.7074
O	6.2801	20.6288	8.5440
C	6.6054	21.6806	9.3786
C	5.4340	21.9586	10.3187
H	7.5041	21.4177	9.9793
H	6.8129	22.5897	8.7716
C	5.7447	23.1157	11.2637
H	4.5322	22.2116	9.7197
H	5.2186	21.0479	10.9190
H	5.9439	24.0434	10.6858
H	4.8765	23.2931	11.9327
H	6.6320	22.8769	11.8880
O	5.0186	14.5063	0.7009
C	4.3680	15.4833	1.4295
C	2.9936	15.7394	0.8138
H	4.2417	15.1441	2.4815
H	4.9614	16.4241	1.4075
C	2.2329	16.8141	1.5849
H	3.1174	16.0687	-0.2409
H	2.4028	14.7977	0.8256
H	2.7957	17.7718	1.5696
H	1.2404	16.9774	1.1145
H	2.0793	16.4977	2.6387
O	13.6476	17.0053	1.0095
C	14.2450	15.9688	1.7004
C	15.6490	15.7366	1.1451
H	13.6433	15.0411	1.5775
H	14.3154	16.2298	2.7796
C	16.3529	14.5980	1.8775
H	16.2487	16.6659	1.2578
H	15.5813	15.4855	0.0641
H	16.4502	14.8358	2.9583
H	17.3685	14.4537	1.4523
H	15.7812	13.6525	1.7617
O	11.8368	22.9956	18.6455
C	11.4332	22.0292	19.5464
C	12.5767	21.7347	20.5154
H	11.1650	21.0974	19.0008
H	10.5520	22.3954	20.1186
C	12.1796	20.6702	21.5338
H	12.8529	22.6672	21.0542
H	13.4616	21.3783	19.9443
H	11.3081	21.0133	22.1313
H	13.0294	20.4785	22.2223
H	11.9182	19.7213	21.0187
O	10.1798	20.5649	16.4209
C	10.7772	21.6014	17.1118
C	12.1812	21.8336	16.5565
H	10.1755	22.5291	16.9889
H	10.8476	21.3404	18.1910
C	12.8851	22.9722	17.2889
H	12.7809	20.9043	16.6692
H	12.1135	22.0847	15.4755
H	12.9825	22.7344	18.3697
H	13.9007	23.1165	16.8637
H	12.3134	23.9177	17.1731
O	4.7910	14.5063	10.9752
C	4.1404	15.4833	11.7037
C	2.7660	15.7394	11.0881
H	4.0141	15.1441	12.7558
H	4.7338	16.4241	11.6818
C	2.0053	16.8141	11.8592
H	2.8898	16.0687	10.0334
H	2.1752	14.7977	11.0999
H	2.5681	17.7718	11.8438
H	1.0128	16.9774	11.3887
H	1.8517	16.4977	12.9129
O	9.2927	16.9414	13.6812
C	9.6181	15.8897	14.5159
C	8.4466	15.6117	15.4560
H	9.8258	14.9806	13.9091
H	10.5167	16.1529	15.1167
C	8.7575	14.4548	16.4012
H	8.2310	16.5224	16.0560
H	7.5450	15.3584	14.8569
H	9.6447	14.6940	17.0256
H	7.8893	14.2774	17.0702
H	8.9570	13.5271	15.8235
