656

Ni	2.9028	9.4421	8.6245
O	1.4194	4.3784	4.0368
O	4.6360	1.6666	3.8035
O	5.7451	4.4111	5.1094
O	0.3079	1.5003	4.8721
N	3.7677	10.5560	7.1530
N	2.0951	8.0914	7.3471
C	3.5585	12.0137	5.2748
H	3.0266	12.3506	4.5628
C	4.8383	12.4984	5.4834
C	5.5898	11.9548	6.5283
H	0.2284	12.2454	6.6834
C	2.4254	6.5009	5.5902
C	2.8617	7.5541	6.3875
H	3.7328	7.9060	6.2457
C	3.0629	11.0319	6.1132
H	2.1949	10.6825	5.9498
C	5.0180	10.9918	7.3328
H	5.5326	10.6236	8.0407
C	0.8614	7.5704	7.5475
H	0.3136	7.9473	8.2266
C	0.3657	6.5159	6.8077
H	5.7518	6.1678	6.9773
C	1.1715	5.9737	5.8009
C	5.3864	1.1183	4.6748
C	0.6533	4.8365	4.9471
Ni	6.1430	3.0813	3.4874
O	4.4320	8.1450	9.1739
O	1.3958	10.8568	8.9407
O	2.5049	8.1123	10.2465
O	3.3205	11.0231	10.0092
N	0.7551	1.9674	2.0158
N	5.3353	4.4320	2.2100
C	0.5459	0.5097	0.1377
H	-0.2136	0.1728	9.6999
C	1.8257	0.0250	0.3462
C	2.5772	0.5686	1.3911
C	5.6656	6.0225	0.4531
C	6.1019	4.9693	1.2504
H	0.7202	4.6174	1.1086
C	0.0503	1.4915	0.9761
H	5.4351	1.8409	0.8127
C	2.0054	1.5316	2.1956
H	2.5200	1.8998	2.9035
C	4.1016	4.9530	2.4103
H	3.5538	4.5761	3.0895
C	3.6059	6.0075	1.6706
C	4.4117	6.5497	0.6637
C	2.1462	11.4051	9.8119
C	3.6659	7.6869	10.0842
Ni	2.6752	9.4421	18.8988
O	1.1918	4.3784	14.3110
O	4.4084	1.6666	14.0778
O	5.5175	4.4111	15.3837
O	0.0803	1.5003	15.1463
N	3.5401	10.5560	17.4272
N	1.8675	8.0914	17.6214
C	3.3310	12.0137	15.5491
H	2.7990	12.3506	14.8371
C	4.6107	12.4984	15.7577
C	5.3622	11.9548	16.8026
H	0.0008	12.2454	16.9577
C	2.1978	6.5009	15.8645
C	2.6341	7.5541	16.6618
H	3.5052	7.9060	16.5200
C	2.8353	11.0319	16.3875
H	1.9673	10.6825	16.2241
C	4.7904	10.9918	17.6070
H	5.3050	10.6236	18.3149
C	0.6338	7.5704	17.8218
H	0.0860	7.9473	18.5009
C	0.1381	6.5159	17.0820
C	0.9439	5.9737	16.0751
C	5.1588	1.1183	14.9491
C	0.4257	4.8365	15.2213
Ni	5.9154	3.0813	13.7617
O	4.2044	8.1450	19.4482
O	1.1682	10.8568	19.2150
O	2.2773	8.1123	20.5208
O	3.0929	11.0231	20.2835
N	0.5275	1.9674	12.2901
N	5.1077	4.4320	12.4843
C	0.3184	0.5097	10.4120
H	-0.4412	0.1728	19.9742
C	1.5981	0.0250	10.6205
C	2.3496	0.5686	11.6654
C	5.4380	6.0225	10.7274
H	5.7720	6.3744	20.3205
C	5.8743	4.9693	11.5247
H	0.4926	4.6174	11.3829
C	-0.1773	1.4915	11.2503
H	5.2075	1.8409	11.0870
C	1.7778	1.5316	12.4699
H	2.2924	1.8998	13.1778
C	3.8740	4.9530	12.6846
H	3.3262	4.5761	13.3638
C	3.3783	6.0075	11.9449
H	2.5116	6.3556	12.1144
C	4.1841	6.5497	10.9380
C	1.9186	11.4051	20.0862
C	3.4383	7.6869	20.3585
Ni	2.9028	21.9655	8.6245
O	1.4194	16.9018	4.0368
O	4.6360	14.1900	3.8035
O	5.7451	16.9345	5.1094
O	0.3079	14.0237	4.8721
N	3.7677	23.0794	7.1530
N	2.0951	20.6148	7.3471
C	3.5585	24.5371	5.2748
H	3.0266	24.8740	4.5628
C	4.8383	25.0218	5.4834
C	5.5898	24.4782	6.5283
C	2.4254	19.0243	5.5902
C	2.8617	20.0775	6.3875
H	3.7328	20.4294	6.2457
C	3.0629	23.5553	6.1132
H	2.1949	23.2059	5.9498
C	5.0180	23.5152	7.3328
H	5.5326	23.1470	8.0407
C	0.8614	20.0938	7.5475
H	0.3136	20.4707	8.2266
C	0.3657	19.0393	6.8077
C	1.1715	18.4971	5.8009
C	5.3864	13.6417	4.6748
C	0.6533	17.3599	4.9471
Ni	6.1430	15.6047	3.4874
O	4.4320	20.6684	9.1739
O	1.3958	23.3802	8.9407
O	2.5049	20.6357	10.2465
O	3.3205	23.5465	10.0092
N	0.7551	14.4908	2.0158
N	5.3353	16.9554	2.2100
C	0.5459	13.0331	0.1377
H	-0.2136	12.6962	9.6999
C	1.8257	12.5484	0.3462
C	2.5772	13.0920	1.3911
H	3.4686	12.8014	1.5463
C	5.6656	18.5459	0.4531
C	6.1019	17.4927	1.2504
H	0.7202	17.1408	1.1086
C	0.0503	14.0149	0.9761
H	5.4351	14.3643	0.8127
C	2.0054	14.0550	2.1956
H	2.5200	14.4232	2.9035
C	4.1016	17.4764	2.4103
H	3.5538	17.0995	3.0895
C	3.6059	18.5309	1.6706
H	2.7392	18.8790	1.8401
C	4.4117	19.0731	0.6637
C	2.1462	23.9285	9.8119
C	3.6659	20.2103	10.0842
Ni	2.6752	21.9655	18.8988
O	1.1918	16.9018	14.3110
O	4.4084	14.1900	14.0778
O	5.5175	16.9345	15.3837
O	0.0803	14.0237	15.1463
N	3.5401	23.0794	17.4272
N	1.8675	20.6148	17.6214
C	3.3310	24.5371	15.5491
C	4.6107	25.0218	15.7577
C	5.3622	24.4782	16.8026
C	2.1978	19.0243	15.8645
H	2.7594	18.6724	15.1833
C	2.6341	20.0775	16.6618
H	3.5052	20.4294	16.5200
C	2.8353	23.5553	16.3875
H	1.9673	23.2059	16.2241
C	4.7904	23.5152	17.6070
H	5.3050	23.1470	18.3149
C	0.6338	20.0938	17.8218
H	0.0860	20.4707	18.5009
C	0.1381	19.0393	17.0820
C	0.9439	18.4971	16.0751
C	5.1588	13.6417	14.9491
C	0.4257	17.3599	15.2213
Ni	5.9154	15.6047	13.7617
O	4.2044	20.6684	19.4482
O	1.1682	23.3802	19.2150
O	2.2773	20.6357	20.5208
O	3.0929	23.5465	20.2835
N	0.5275	14.4908	12.2901
N	5.1077	16.9554	12.4843
C	0.3184	13.0331	10.4120
C	1.5981	12.5484	10.6205
C	2.3496	13.0920	11.6654
C	5.4380	18.5459	10.7274
C	5.8743	17.4927	11.5247
H	0.4926	17.1408	11.3829
C	-0.1773	14.0149	11.2503
H	5.2075	14.3643	11.0870
C	1.7778	14.0550	12.4699
H	2.2924	14.4232	13.1778
C	3.8740	17.4764	12.6846
H	3.3262	17.0995	13.3638
C	3.3783	18.5309	11.9449
H	2.5116	18.8790	12.1144
C	4.1841	19.0731	10.9380
C	1.9186	23.9285	20.0862
C	3.4383	20.2103	20.3585
Ni	9.1556	9.4421	8.6245
O	7.6722	4.3784	4.0368
O	10.8888	1.6666	3.8035
O	11.9979	4.4111	5.1094
O	6.5607	1.5003	4.8721
N	10.0205	10.5560	7.1530
N	8.3479	8.0914	7.3471
C	9.8113	12.0137	5.2748
C	11.0911	12.4984	5.4834
C	11.8426	11.9548	6.5283
C	8.6782	6.5009	5.5902
C	9.1145	7.5541	6.3875
H	9.9856	7.9060	6.2457
C	9.3157	11.0319	6.1132
H	8.4477	10.6825	5.9498
C	11.2708	10.9918	7.3328
H	11.7854	10.6236	8.0407
C	7.1142	7.5704	7.5475
H	6.5664	7.9473	8.2266
C	6.6185	6.5159	6.8077
H	12.0046	6.1678	6.9773
C	7.4243	5.9737	5.8009
C	11.6392	1.1183	4.6748
C	6.9061	4.8365	4.9471
Ni	12.3958	3.0813	3.4874
O	10.6848	8.1450	9.1739
O	7.6486	10.8568	8.9407
O	8.7577	8.1123	10.2465
O	9.5733	11.0231	10.0092
N	7.0079	1.9674	2.0158
N	11.5881	4.4320	2.2100
C	6.7987	0.5097	0.1377
H	6.0392	0.1728	9.6999
C	8.0785	0.0250	0.3462
C	8.8300	0.5686	1.3911
H	9.7214	0.2780	1.5463
C	11.9184	6.0225	0.4531
C	12.3547	4.9693	1.2504
H	6.9730	4.6174	1.1086
C	6.3031	1.4915	0.9761
H	11.6879	1.8409	0.8127
C	8.2582	1.5316	2.1956
H	8.7728	1.8998	2.9035
C	10.3544	4.9530	2.4103
H	9.8066	4.5761	3.0895
C	9.8587	6.0075	1.6706
H	8.9920	6.3556	1.8401
C	10.6645	6.5497	0.6637
C	8.3990	11.4051	9.8119
C	9.9187	7.6869	10.0842
Ni	8.9280	9.4421	18.8988
O	7.4446	4.3784	14.3110
O	10.6612	1.6666	14.0778
O	11.7703	4.4111	15.3837
O	6.3331	1.5003	15.1463
N	9.7929	10.5560	17.4272
N	8.1203	8.0914	17.6214
C	9.5838	12.0137	15.5491
C	10.8635	12.4984	15.7577
C	11.6150	11.9548	16.8026
C	8.4506	6.5009	15.8645
H	9.0122	6.1490	15.1833
C	8.8869	7.5541	16.6618
H	9.7580	7.9060	16.5200
C	9.0881	11.0319	16.3875
H	8.2201	10.6825	16.2241
C	11.0432	10.9918	17.6070
H	11.5578	10.6236	18.3149
C	6.8866	7.5704	17.8218
H	6.3388	7.9473	18.5009
C	6.3909	6.5159	17.0820
H	11.7770	6.1678	17.2515
C	7.1967	5.9737	16.0751
C	11.4116	1.1183	14.9491
C	6.6785	4.8365	15.2213
Ni	12.1682	3.0813	13.7617
O	10.4572	8.1450	19.4482
O	7.4210	10.8568	19.2150
O	8.5301	8.1123	20.5208
O	9.3457	11.0231	20.2835
N	6.7803	1.9674	12.2901
N	11.3605	4.4320	12.4843
C	6.5712	0.5097	10.4120
C	7.8509	0.0250	10.6205
C	8.6024	0.5686	11.6654
C	11.6908	6.0225	10.7274
C	12.1271	4.9693	11.5247
H	6.7454	4.6174	11.3829
C	6.0755	1.4915	11.2503
H	11.4603	1.8409	11.0870
C	8.0306	1.5316	12.4699
H	8.5452	1.8998	13.1778
C	10.1268	4.9530	12.6846
H	9.5790	4.5761	13.3638
C	9.6311	6.0075	11.9449
H	8.7644	6.3556	12.1144
C	10.4369	6.5497	10.9380
C	8.1714	11.4051	20.0862
C	9.6911	7.6869	20.3585
Ni	9.1556	21.9655	8.6245
O	7.6722	16.9018	4.0368
O	10.8888	14.1900	3.8035
O	11.9979	16.9345	5.1094
O	6.5607	14.0237	4.8721
N	10.0205	23.0794	7.1530
N	8.3479	20.6148	7.3471
C	9.8113	24.5371	5.2748
H	9.2794	24.8740	4.5628
C	11.0911	25.0218	5.4834
C	11.8426	24.4782	6.5283
C	8.6782	19.0243	5.5902
H	9.2398	18.6724	4.9091
C	9.1145	20.0775	6.3875
H	9.9856	20.4294	6.2457
C	9.3157	23.5553	6.1132
H	8.4477	23.2059	5.9498
C	11.2708	23.5152	7.3328
H	11.7854	23.1470	8.0407
C	7.1142	20.0938	7.5475
H	6.5664	20.4707	8.2266
C	6.6185	19.0393	6.8077
H	12.0046	18.6912	6.9773
C	7.4243	18.4971	5.8009
C	11.6392	13.6417	4.6748
C	6.9061	17.3599	4.9471
Ni	12.3958	15.6047	3.4874
O	10.6848	20.6684	9.1739
O	7.6486	23.3802	8.9407
O	8.7577	20.6357	10.2465
O	9.5733	23.5465	10.0092
N	7.0079	14.4908	2.0158
N	11.5881	16.9554	2.2100
C	6.7987	13.0331	0.1377
C	8.0785	12.5484	0.3462
C	8.8300	13.0920	1.3911
C	11.9184	18.5459	0.4531
C	12.3547	17.4927	1.2504
H	6.9730	17.1408	1.1086
C	6.3031	14.0149	0.9761
H	11.6879	14.3643	0.8127
C	8.2582	14.0550	2.1956
H	8.7728	14.4232	2.9035
C	10.3544	17.4764	2.4103
H	9.8066	17.0995	3.0895
C	9.8587	18.5309	1.6706
H	8.9920	18.8790	1.8401
C	10.6645	19.0731	0.6637
C	8.3990	23.9285	9.8119
C	9.9187	20.2103	10.0842
Ni	8.9280	21.9655	18.8988
O	7.4446	16.9018	14.3110
O	10.6612	14.1900	14.0778
O	11.7703	16.9345	15.3837
O	6.3331	14.0237	15.1463
N	9.7929	23.0794	17.4272
N	8.1203	20.6148	17.6214
C	9.5838	24.5371	15.5491
H	9.0518	24.8740	14.8371
C	10.8635	25.0218	15.7577
C	11.6150	24.4782	16.8026
H	6.2536	24.7688	16.9577
C	8.4506	19.0243	15.8645
H	9.0122	18.6724	15.1833
C	8.8869	20.0775	16.6618
H	9.7580	20.4294	16.5200
C	9.0881	23.5553	16.3875
H	8.2201	23.2059	16.2241
C	11.0432	23.5152	17.6070
H	11.5578	23.1470	18.3149
C	6.8866	20.0938	17.8218
H	6.3388	20.4707	18.5009
C	6.3909	19.0393	17.0820
C	7.1967	18.4971	16.0751
C	11.4116	13.6417	14.9491
C	6.6785	17.3599	15.2213
Ni	12.1682	15.6047	13.7617
O	10.4572	20.6684	19.4482
O	7.4210	23.3802	19.2150
O	8.5301	20.6357	20.5208
O	9.3457	23.5465	20.2835
N	6.7803	14.4908	12.2901
N	11.3605	16.9554	12.4843
C	6.5712	13.0331	10.4120
H	5.8116	12.6962	19.9742
C	7.8509	12.5484	10.6205
C	8.6024	13.0920	11.6654
H	9.4938	12.8014	11.8206
C	11.6908	18.5459	10.7274
C	12.1271	17.4927	11.5247
H	6.7454	17.1408	11.3829
C	6.0755	14.0149	11.2503
H	11.4603	14.3643	11.0870
C	8.0306	14.0550	12.4699
H	8.5452	14.4232	13.1778
C	10.1268	17.4764	12.6846
H	9.5790	17.0995	13.3638
C	9.6311	18.5309	11.9449
H	8.7644	18.8790	12.1144
C	10.4369	19.0731	10.9380
C	8.1714	23.9285	20.0862
C	9.6911	20.2103	20.3585
O	6.8750	12.3915	6.7278
C	7.7278	11.9430	7.7179
C	9.0590	12.6695	7.6059
H	7.9029	10.8510	7.6022
H	7.2888	12.1485	8.7188
H	9.5181	12.4721	6.6139
H	9.7489	12.3131	8.3996
H	8.9068	13.7634	7.7252
O	3.2281	5.9846	4.6009
C	4.5013	6.4168	4.2837
C	5.0450	5.5858	3.1320
H	5.1727	6.2971	5.1620
H	4.4739	7.4848	3.9753
H	5.0865	4.5144	3.4220
H	6.0687	5.9287	2.8724
H	4.3910	5.6965	2.2409
O	3.8624	0.1319	1.5907
C	4.7152	0.5804	2.5808
C	6.0464	-0.1461	2.4688
H	4.2762	0.3751	3.5816
H	4.8904	1.6724	2.4650
H	5.8942	-1.2400	2.5881
H	6.7364	0.2104	3.2624
H	6.5054	0.0512	1.4767
O	2.3624	6.5295	1.8939
C	1.4702	6.0889	2.8523
C	0.2013	6.9241	2.7838
H	1.2102	5.0236	2.6677
H	1.9173	6.1959	3.8648
H	-0.2652	6.8261	1.7805
H	-0.5200	6.5745	3.5522
H	0.4385	7.9929	2.9719
O	6.6475	12.3915	17.0021
C	7.5002	11.9430	17.9922
C	8.8314	12.6695	17.8802
H	7.0612	12.1483	18.9930
H	7.6754	10.8510	17.8764
H	8.6792	13.7634	17.9995
H	9.5214	12.3130	18.6738
H	9.2905	12.4722	16.8881
O	3.0005	5.9846	14.8752
C	4.2737	6.4168	14.5580
C	4.8174	5.5858	13.4062
H	4.9451	6.2971	15.4363
H	4.2463	7.4848	14.2496
H	4.8589	4.5144	13.6963
H	5.8411	5.9287	13.1466
H	4.1634	5.6965	12.5152
O	3.6349	0.1319	11.8650
C	4.4876	0.5804	12.8550
C	5.8188	-0.1461	12.7431
H	4.0486	0.3751	13.8559
H	4.6628	1.6724	12.7392
H	5.6666	-1.2400	12.8624
H	6.5088	0.2104	13.5367
H	6.2778	0.0512	11.7510
O	6.2407	6.5388	9.7380
C	7.5139	6.1066	9.4208
C	8.0576	6.9376	8.2691
H	8.1853	6.2263	10.2992
H	7.4865	5.0386	9.1125
H	8.0991	8.0090	8.5592
H	9.0813	6.5947	8.0095
H	7.4036	6.8269	7.3781
O	6.8750	24.9149	6.7278
C	7.7278	24.4664	7.7179
C	9.0590	25.1929	7.6059
H	7.9029	23.3744	7.6022
H	7.2888	24.6719	8.7188
H	9.5181	24.9955	6.6139
H	9.7489	24.8365	8.3996
H	8.9068	26.2868	7.7252
O	3.2281	18.5080	4.6009
C	4.5014	18.9401	4.2837
C	5.0450	18.1092	3.1320
H	4.4740	20.0082	3.9754
H	5.1727	18.8204	5.1621
H	4.3910	18.2199	2.2409
H	6.0687	18.4521	2.8724
H	5.0864	17.0377	3.4220
O	-0.2083	12.5313	-0.8967
C	-1.4940	12.9212	-1.2185
C	-1.9755	12.1297	-2.4243
H	-1.5107	14.0045	-1.4691
H	-2.1760	12.7237	-0.3627
H	-1.3103	12.3180	-3.2937
H	-3.0090	12.4389	-2.6878
H	-1.9724	11.0433	-2.1924
O	6.4683	19.0622	-0.5362
C	7.7415	18.6300	-0.8535
C	8.2852	19.4610	-2.0052
H	8.4129	18.7497	0.0249
H	7.7141	17.5620	-1.1618
H	8.3267	20.5324	-1.7151
H	9.3089	19.1181	-2.2648
H	7.6312	19.3503	-2.8962
O	2.5767	25.0389	14.5147
C	1.2910	24.6490	14.1929
C	0.8095	25.4405	12.9871
H	1.2744	23.5657	13.9423
H	0.6090	24.8465	15.0488
H	1.4748	25.2522	12.1178
H	-0.2240	25.1313	12.7236
H	0.8126	26.5269	13.2190
O	-1.1054	18.5173	17.3053
C	-1.9976	18.9579	18.2636
C	-3.2665	18.1227	18.1952
H	-1.5506	18.8511	19.2762
H	-2.2576	20.0232	18.0790
H	-3.0293	17.0539	18.3834
H	-3.9878	18.4724	18.9636
H	-3.7330	18.2206	17.1919
O	3.6348	12.6553	11.8650
C	4.4876	13.1038	12.8551
C	5.8188	12.3773	12.7431
H	4.6627	14.1958	12.7394
H	4.0486	12.8983	13.8559
H	6.2779	12.5747	11.7510
H	6.5087	12.7337	13.5368
H	5.6666	11.2834	12.8623
O	6.2407	19.0622	9.7380
C	7.5139	18.6300	9.4208
C	8.0576	19.4610	8.2691
H	8.1853	18.7497	10.2992
H	7.4865	17.5620	9.1125
H	8.0991	20.5324	8.5592
H	9.0813	19.1181	8.0095
H	7.4036	19.3503	7.3781
O	9.0571	12.5155	4.2404
C	7.7714	12.1256	3.9187
C	7.2899	12.9171	2.7128
H	7.7547	11.0423	3.6681
H	7.0894	12.3231	4.7745
H	7.9552	12.7288	1.8435
H	6.2564	12.6079	2.4494
H	7.2930	14.0035	2.9447
O	9.4809	5.9846	4.6009
C	10.7542	6.4167	4.2837
C	11.2978	5.5858	3.1320
H	10.7268	7.4848	3.9754
H	11.4255	6.2970	5.1621
H	10.6438	5.6965	2.2409
H	12.3215	5.9287	2.8724
H	11.3392	4.5143	3.4220
O	6.0445	0.0079	-0.8967
C	4.7588	0.3978	-1.2185
C	4.2773	-0.3937	-2.4243
H	4.7421	1.4811	-1.4691
H	4.0768	0.2003	-0.3627
H	4.9425	-0.2054	-3.2937
H	3.2438	-0.0845	-2.6878
H	4.2804	-1.4801	-2.1924
O	12.7211	6.5388	-0.5362
C	13.9943	6.1066	-0.8535
C	14.5380	6.9376	-2.0052
H	14.6657	6.2263	0.0249
H	13.9669	5.0386	-1.1618
H	14.5795	8.0090	-1.7151
H	15.5617	6.5947	-2.2648
H	13.8840	6.8269	-2.8962
O	8.8295	12.5155	14.5147
C	7.5438	12.1256	14.1929
C	7.0623	12.9171	12.9871
H	7.5272	11.0423	13.9423
H	6.8618	12.3231	15.0488
H	7.7276	12.7288	12.1178
H	6.0288	12.6079	12.7236
H	7.0654	14.0035	13.2190
O	5.1474	5.9939	17.3053
C	4.2552	6.4345	18.2636
C	2.9863	5.5993	18.1952
H	4.7022	6.3277	19.2762
H	3.9952	7.4998	18.0790
H	3.2235	4.5305	18.3834
H	2.2650	5.9490	18.9636
H	2.5198	5.6972	17.1919
O	9.8877	0.1319	11.8650
C	10.7404	0.5804	12.8550
C	12.0716	-0.1461	12.7431
H	10.3014	0.3751	13.8559
H	10.9156	1.6724	12.7392
H	11.9194	-1.2400	12.8624
H	12.7616	0.2104	13.5367
H	12.5306	0.0512	11.7510
O	12.4935	6.5388	9.7380
C	13.7667	6.1066	9.4208
C	14.3104	6.9376	8.2691
H	14.4381	6.2263	10.2992
H	13.7393	5.0386	9.1125
H	14.3519	8.0090	8.5592
H	15.3341	6.5947	8.0095
H	13.6564	6.8269	7.3781
O	13.1278	24.9149	6.7278
C	13.9806	24.4664	7.7179
C	15.3118	25.1929	7.6059
H	14.1557	23.3744	7.6022
H	13.5416	24.6719	8.7188
H	15.7709	24.9955	6.6139
H	16.0017	24.8365	8.3996
H	15.1596	26.2868	7.7252
O	5.3750	18.5173	7.0310
C	4.4828	18.9579	7.9893
C	3.2139	18.1227	7.9209
H	4.9298	18.8511	9.0019
H	4.2228	20.0232	7.8047
H	3.4511	17.0539	8.1091
H	2.4926	18.4724	8.6893
H	2.7474	18.2206	6.9176
O	10.1152	12.6553	1.5907
C	10.9680	13.1038	2.5808
C	12.2992	12.3773	2.4688
H	11.1431	14.1958	2.4651
H	10.5290	12.8983	3.5816
H	12.7583	12.5747	1.4768
H	12.9891	12.7337	3.2625
H	12.1470	11.2834	2.5880
O	12.7211	19.0622	-0.5362
C	13.9943	18.6300	-0.8535
C	14.5380	19.4610	-2.0052
H	14.6657	18.7497	0.0249
H	13.9669	17.5620	-1.1618
H	14.5795	20.5324	-1.7151
H	15.5617	19.1181	-2.2648
H	13.8840	19.3503	-2.8962
O	12.9003	24.9149	17.0021
C	13.7530	24.4664	17.9922
C	15.0842	25.1929	17.8802
H	13.3140	24.6717	18.9930
H	13.9282	23.3744	17.8764
H	14.9320	26.2868	17.9995
H	15.7742	24.8364	18.6738
H	15.5433	24.9956	16.8881
O	5.1474	18.5173	17.3053
C	4.2553	18.9579	18.2637
C	2.9863	18.1227	18.1952
H	3.9952	20.0232	18.0791
H	4.7023	18.8509	19.2762
H	2.5198	18.2207	17.1919
H	2.2650	18.4723	18.9636
H	3.2235	17.0539	18.3833
O	5.8169	12.5313	9.3776
C	4.5312	12.9212	9.0558
C	4.0497	12.1297	7.8500
H	4.5145	14.0045	8.8052
H	3.8492	12.7237	9.9116
H	4.7150	12.3180	6.9806
H	3.0162	12.4389	7.5865
H	4.0528	11.0433	8.0818
O	12.4935	19.0622	9.7380
C	13.7667	18.6300	9.4208
C	14.3104	19.4610	8.2691
H	14.4381	18.7497	10.2992
H	13.7393	17.5620	9.1125
H	14.3519	20.5324	8.5592
H	15.3341	19.1181	8.0095
H	13.6564	19.3503	7.3781
