140
Atoms. Timestep: 0
Ni 2.89857 9.41116 8.59265
Ni 6.17525 3.10579 3.48481
O 1.44827 4.35425 3.93374
O 4.4416 8.15245 9.05464
O 4.63665 1.84729 3.87523
O 1.36499 10.6744 9.00295
O 5.80609 4.46033 4.96242
O 2.54244 8.0327 10.0675
O 0.25117 1.69264 4.94273
O 3.23722 10.8047 10.0626
N 3.69677 10.6606 7.2416
N 0.71256 1.8642 2.11704
N 2.17217 8.14409 7.25198
N 5.44023 4.39481 2.13747
C 3.48546 12.1483 5.36301
C 0.47488 0.38955 0.2292
H 2.86453 12.5181 4.55267
H 5.86971 0.03371 9.69377
C 4.76073 0.1474 5.61481
C 1.74333 12.3699 0.47412
C 5.50345 12.1502 6.68209
C 2.49852 0.35508 1.54004
H 0.24768 12.5084 6.91993
H 3.49155 12.5067 1.77336
C 2.48363 6.6337 5.40822
C 5.72803 5.90364 0.28669
H 3.13294 6.27291 4.61605
H -0.10828 6.26667 9.7662
C 2.92756 7.68099 6.23068
C 6.1883 4.86756 1.11596
H 3.89994 8.14655 6.0889
C 2.98256 11.1359 6.19748
C -0.01036 1.40553 1.07106
C 4.93641 11.1381 7.47507
C 1.94823 1.3719 2.3406
H 5.48559 10.7097 8.30944
C 0.94573 7.62654 7.47302
C 4.21083 4.90458 2.35686
C 0.43859 6.57577 6.69176
C 3.68763 5.945 1.56944
H 5.70774 6.17693 6.91975
H 2.69824 6.32683 1.80071
C 1.22745 6.06471 5.65205
C 4.46338 6.45777 0.52027
C 5.3126 1.24381 4.79419
C 2.0502 11.2675 9.92158
C 0.73548 4.94016 4.83586
C 3.73174 7.56629 9.95688
Ni 9.15137 9.41116 8.59265
Ni 12.4281 3.10579 3.48481
O 7.70109 4.35425 3.93374
O 10.6944 8.15245 9.05464
O 10.8895 1.84729 3.87523
O 7.61779 10.6744 9.00295
O 12.0589 4.46033 4.96242
O 8.79524 8.0327 10.0675
O 6.50397 1.69264 4.94273
O 9.49002 10.8047 10.0626
N 9.94957 10.6606 7.2416
N 6.96536 1.8642 2.11704
N 8.42499 8.14409 7.25198
N 11.693 4.39481 2.13747
C 9.73826 12.1483 5.36301
C 6.72768 0.38955 0.2292
H 9.11733 12.5181 4.55267
H 12.1225 0.03371 9.69377
C 11.0135 0.1474 5.61481
C 7.99613 12.3699 0.47412
C 11.7562 12.1502 6.68209
C 8.75132 0.35508 1.54004
H 6.50047 12.5084 6.91993
H 9.74435 12.5067 1.77336
C 8.73644 6.6337 5.40822
C 11.9808 5.90364 0.28669
H 9.38574 6.27291 4.61605
H 6.14452 6.26667 9.7662
C 9.18036 7.68099 6.23068
C 12.4411 4.86756 1.11596
H 7.16869 4.41889 0.97634
C 9.23536 11.1359 6.19748
C 6.24244 1.40553 1.07106
H 8.24672 10.709 6.04703
H 11.5137 1.85011 0.92351
C 11.1892 11.1381 7.47507
C 8.20102 1.3719 2.3406
H 8.76167 1.79214 3.17267
C 7.19853 7.62654 7.47302
C 10.4636 4.90458 2.35686
H 6.61608 8.05184 8.28732
H 9.88885 4.47744 3.17528
C 6.69139 6.57577 6.69176
C 9.94043 5.945 1.56944
H 11.9605 6.17693 6.91975
H 8.95104 6.32683 1.80071
C 7.48025 6.06471 5.65205
C 10.7162 6.45777 0.52027
C 11.5654 1.24381 4.79419
C 8.303 11.2675 9.92158
C 6.98827 4.94016 4.83586
C 9.98454 7.56629 9.95688
O 1.71375 10.6385 5.90597
C 1.07252 9.64718 6.62089
H 0.08059 9.45591 6.16279
H 0.91802 9.96925 7.67281
H 1.66216 8.70619 6.58882
O 2.73831 1.85598 3.38508
C 2.35749 2.84862 4.26521
H 3.18128 3.02724 4.98621
H 1.45523 2.53525 4.83252
H 2.15863 3.79418 3.71699
O 0.12888 8.11709 8.49136
C 0.46985 9.14285 9.3496
H 12.1363 9.31856 10.0534
H 0.65205 10.0783 8.77882
H 1.37132 8.86907 9.93831
O 3.4011 4.4154 3.3837
C 3.75483 3.40032 4.24943
H 2.92013 3.22311 4.95812
H 3.9433 2.46157 3.68605
H 4.65607 3.68739 4.8321
O 11.9662 10.6415 8.52374
C 11.5679 9.65058 9.39809
H -0.12107 9.4603 10.1242
H 11.362 8.70907 8.84554
H 10.6654 9.97261 9.96011
O 4.98088 1.92437 0.78432
C 4.35641 2.92157 1.50587
H 3.36687 3.13095 1.05051
H 4.19854 2.59603 2.55623
H 4.96068 3.85338 1.47811
O 10.4318 8.22683 5.95448
C 11.0161 9.2577 6.66219
H 12.008 9.48269 6.21942
H 11.1633 8.96201 7.72288
H 10.3879 10.1719 6.60077
O 1.19787 4.34349 0.84428
C 1.79936 3.32654 1.55772
H 2.79608 3.11773 1.11803
H 1.93879 3.62946 2.61741
H 1.18803 2.4008 1.499
140
Atoms. Timestep: 149
Ni 3.17141 9.52383 9.09903
Ni 6.48845 2.81622 3.64664
O 1.06007 4.38843 4.10709
O 4.63994 8.43079 9.26303
O 5.03604 1.74907 3.77127
O 1.7498 10.6347 9.28037
O 6.1487 3.79942 5.07229
O 3.05361 8.43244 0.226051
O -0.0107683 2.16741 5.31399
O 3.91524 10.834 0.0426146
N 3.87021 10.6373 7.57585
N 0.577868 1.93623 2.64108
N 2.29107 8.18751 7.82139
N 5.71807 4.25932 2.43518
C 3.94554 11.6175 5.31632
C 0.855237 0.808643 0.44982
H 3.50744 11.6785 4.34249
H 6.21912 0.491356 9.37189
C 5.13363 12.3589 5.59233
C 2.0045 0.0566711 0.849553
C 5.67337 12.1594 6.86541
C 2.4901 0.395236 2.14091
H 12.3357 0.269704 7.41029
H 3.47827 0.058281 2.40722
C 2.10342 7.07407 5.61988
C 6.00791 5.91225 0.598866
H 2.45898 7.05262 4.59827
H 11.6873 5.46451 9.44167
C 2.85393 7.82566 6.61364
C 6.48183 4.80498 1.41326
H 3.84152 8.18401 6.36065
C 3.22913 10.9024 6.37921
C 0.0651157 1.57088 1.41014
C 5.03672 11.2949 7.81836
C 1.8168 1.39748 2.99244
H 5.41461 11.2322 8.79617
C 1.04011 7.64525 8.12087
C 4.5088 4.87987 2.72133
C 0.415036 6.63273 7.24832
C 4.05485 6.04531 1.97971
H 5.74754 5.96036 6.61567
H 3.10238 6.4907 2.23713
C 0.957412 6.30297 5.97653
C 4.78969 6.57682 0.890419
C 5.75193 0.934745 4.60693
C 2.43842 11.3953 10.1829
C 0.342274 5.12746 5.00354
C 4.25061 7.83136 0.0447718
Ni 8.8297 9.16867 8.67963
Ni 12.16 3.26274 3.90577
O 7.96339 3.83971 3.86352
O 10.2559 8.08417 8.87574
O 10.7121 2.16506 4.04552
O 7.36695 10.2248 8.8136
O 11.6177 4.53901 5.11167
O 8.24276 7.82545 9.75034
O 6.9918 1.47027 4.75627
O 9.1143 10.1311 10.1199
N 9.68974 10.5898 7.51851
N 7.10962 1.76551 2.10301
N 8.27932 8.14648 7.10576
N 11.4601 4.38846 2.37537
C 9.5301 12.177 5.62168
C 6.72722 0.381406 0.117659
H 9.01458 12.4414 4.71934
H 0.296999 0.759541 9.69674
C 10.7194 0.336926 5.97475
C 7.79696 12.0412 0.446284
C 11.3842 12.3625 7.12861
C 8.58014 12.4305 1.5414
H 6.57557 0.162114 7.14602
H 9.43508 11.8357 1.83591
C 8.9577 6.30281 5.67281
C 11.4522 5.39782 0.12982
H 9.77638 5.7225 5.38952
H 6.3506 6.20849 10.0049
C 9.21071 7.57229 6.27333
C 12.1361 4.67034 1.20285
H 7.43422 4.35439 1.17208
C 9.00948 11.0922 6.42307
C 6.30455 1.41125 1.0353
H 8.07428 10.6365 6.1292
H 11.5951 1.93139 1.11437
C 10.879 11.2157 7.8762
C 8.28993 1.09501 2.25701
H 8.90703 1.35448 3.0674
C 6.99795 7.66574 7.05201
C 10.274 5.0526 2.58442
H 6.22699 8.17835 7.5846
H 9.8238 4.96704 3.51742
C 6.69148 6.43212 6.40348
C 9.72011 5.99115 1.65572
H 11.9267 6.28357 7.47659
H 8.8579 6.57759 1.94813
C 7.66428 5.75574 5.63551
C 10.2788 6.16824 0.388712
C 11.3055 1.56172 5.10982
C 7.95948 10.7507 9.92556
C 7.33636 4.38325 4.95057
C 9.48812 7.27861 9.66546
O 1.84779 10.8098 6.32745
C 1.40607 10.2152 5.12357
H 0.983847 11.0016 4.46284
H 0.599387 9.50121 5.36864
H 2.18671 9.65485 4.55846
O 2.59296 2.09226 3.89414
C 2.47656 1.67873 5.23842
H 3.45864 1.60574 5.70069
H 1.89372 0.745894 5.39252
H 2.1055 2.51871 5.85663
O 0.222833 8.3308 8.99333
C 0.554748 7.91829 0.0644504
H 12.0742 7.83369 0.513611
H 0.913469 8.7581 0.688535
H 1.13485 6.98498 0.226696
O 3.62107 4.26622 3.56722
C 3.78425 4.69827 4.89907
H 2.84745 4.79801 5.39725
H 4.06922 3.86551 5.55722
H 4.36342 5.63722 5.01685
O 11.7382 10.5795 8.74148
C 11.5076 10.925 10.0923
H 0.150016 11.0144 0.365063
H 11.4207 10.0426 0.393743
H 10.876 11.8298 10.2546
O 5.08038 2.03017 0.85199
C 4.82999 2.70404 9.87995
H 4.34928 2.05674 9.11482
H 4.22044 3.62151 9.97749
H 5.83353 3.02862 9.51146
O 10.4057 8.21689 6.02585
C 10.3961 8.71138 4.69775
H 10.9149 7.992 4.02774
H 10.9494 9.66952 4.66669
H 9.38041 8.93318 4.28723
O 1.01374 4.58936 1.19464
C 1.49945 3.98589 0.0124006
H 1.75512 4.76153 9.65602
H 2.27066 3.24613 0.296038
H 0.506536 3.45512 9.67379
140
Atoms. Timestep: 157
Ni 3.17056 9.52537 9.09532
Ni 6.48904 2.81913 3.64677
O 1.05914 4.38761 4.10714
O 4.63909 8.43223 9.2599
O 5.03634 1.75123 3.76954
O 1.74839 10.637 9.27689
O 6.14772 3.79992 5.07322
O 3.05257 8.43383 0.2209
O -0.0122598 2.16781 5.31202
O 3.91348 10.8353 0.0392843
N 3.86893 10.6391 7.57397
N 0.578454 1.93608 2.64074
N 2.29258 8.18969 7.81731
N 5.71754 4.26318 2.43801
C 3.9436 11.6198 5.31455
C 0.85651 0.809174 0.449971
H 3.50504 11.6809 4.34105
H 6.22099 0.491228 9.36856
C 5.13154 12.3619 5.59146
C 2.00429 0.0567378 0.849273
C 5.67382 12.1588 6.86296
C 2.49155 0.396404 2.14033
H 12.3396 0.269626 7.40864
H 3.48285 0.0648009 2.4037
C 2.10419 7.07189 5.61756
C 6.00706 5.91462 0.600947
H 2.45895 7.0478 4.59734
H 11.6905 5.46477 9.43906
C 2.85601 7.82577 6.60846
C 6.48102 4.80842 1.41633
H 3.83867 8.19235 6.34764
C 3.22827 10.9024 6.37621
C 0.0653533 1.5705 1.40963
C 5.03564 11.2951 7.81668
C 1.81757 1.39736 2.99239
H 5.41497 11.2274 8.79379
C 1.04291 7.64646 8.11928
C 4.50802 4.88401 2.7252
C 0.417633 6.63258 7.2492
C 4.04954 6.04452 1.97818
H 5.74488 5.95803 6.62154
H 3.09336 6.48421 2.23078
C 0.958038 6.30128 5.9766
C 4.78415 6.57431 0.885834
C 5.75145 0.935894 4.60485
C 2.43714 11.3971 10.1806
C 0.341449 5.12737 5.00317
C 4.24746 7.83092 0.0396394
Ni 8.83065 9.17208 8.68226
Ni 12.1598 3.26227 3.90437
O 7.9631 3.84322 3.86592
O 10.2576 8.08737 8.87745
O 10.7115 2.16387 4.04244
O 7.36903 10.2275 8.81608
O 11.6162 4.53927 5.11014
O 8.2446 7.8301 9.7545
O 6.99169 1.47139 4.75539
O 9.11707 10.1354 10.1211
N 9.69202 10.5909 7.51995
N 7.1126 1.76939 2.10203
N 8.27694 8.14702 7.11037
N 11.4619 4.38792 2.37367
C 9.53419 12.1714 5.61796
C 6.73126 0.386417 0.11464
H 9.01368 12.4384 4.71943
H 0.298435 0.759266 9.69786
C 10.7243 0.331538 5.96874
C 7.79883 12.0442 0.446036
C 11.3886 12.3608 7.12603
C 8.58192 12.4328 1.54055
H 6.58068 0.155226 7.14153
H 9.43519 11.8346 1.8355
C 8.95406 6.30207 5.67895
C 11.4555 5.39936 0.127715
H 9.77323 5.71717 5.40401
H 6.35104 6.20905 10.0084
C 9.20659 7.57291 6.27779
C 12.1379 4.66847 1.20006
H 7.43267 4.35737 1.17317
C 9.01297 11.0892 6.42257
C 6.31159 1.42165 1.0298
H 8.07483 10.6367 6.13392
H 11.5972 1.93296 1.11172
C 10.8809 11.2184 7.87797
C 8.29063 1.09491 2.25895
H 8.90376 1.34862 3.07356
C 6.99483 7.66506 7.0577
C 10.2797 5.05686 2.58615
H 6.2231 8.17895 7.58695
H 9.83039 4.97017 3.52036
C 6.6876 6.43261 6.40739
C 9.72006 5.98803 1.65337
H 11.9297 6.28447 7.4789
H 8.85638 6.57181 1.94618
C 7.66057 5.75714 5.63756
C 10.2795 6.1679 0.386869
C 11.3059 1.56112 5.10744
C 7.96075 10.7541 9.92651
C 7.33495 4.38507 4.95226
C 9.49014 7.28287 9.66793
O 1.8468 10.8068 6.32387
C 1.40459 10.2095 5.12329
H 0.978136 10.9939 4.46245
H 0.603076 9.49101 5.3743
H 2.18435 9.65134 4.55386
O 2.59264 2.09101 3.89541
C 2.47509 1.67336 5.23798
H 3.45573 1.60679 5.70614
H 1.88972 0.740787 5.38909
H 2.10182 2.51005 5.85672
O 0.227732 8.33107 8.99247
C 0.558227 7.91231 0.0629024
H 12.0772 7.83324 0.514701
H 0.919442 8.74938 0.686908
H 1.14214 6.98087 0.222554
O 3.62021 4.26964 3.57066
C 3.7831 4.70184 4.90456
H 2.84623 4.79464 5.40573
H 4.0706 3.86934 5.56085
H 4.36045 5.64113 5.01991
O 11.7407 10.5837 8.74385
C 11.5096 10.9277 10.0957
H 0.151688 11.0128 0.369929
H 11.4222 10.0435 0.393575
H 10.8817 11.8346 10.2592
O 5.08572 2.0395 0.851045
C 4.82764 2.71114 9.87758
H 4.34756 2.05798 9.11843
H 4.21132 3.62438 9.97525
H 5.82719 3.04233 9.50535
O 10.4011 8.21832 6.03133
C 10.3907 8.71158 4.70303
H 10.9034 7.98608 4.03615
H 10.9531 9.66487 4.66893
H 9.37464 8.93941 4.29554
O 1.01528 4.58167 1.19113
C 1.49945 3.97775 0.0100591
H 1.75388 4.75251 9.65172
H 2.27077 3.23893 0.294688
H 0.507373 3.44292 9.67312
140
Atoms. Timestep: 163
Ni 3.17155 9.52505 9.09521
Ni 6.48892 2.81996 3.64719
O 1.06074 4.38767 4.10703
O 4.63928 8.43084 9.25985
O 5.03679 1.75168 3.7696
O 1.75015 10.6367 9.27682
O 6.14736 3.80045 5.07357
O 3.05313 8.434 0.221551
O -0.0112576 2.1669 5.31165
O 3.91538 10.8346 0.0391591
N 3.87007 10.6385 7.57275
N 0.579101 1.93596 2.64013
N 2.29156 8.18929 7.81721
N 5.71723 4.26319 2.43726
C 3.94362 11.6191 5.3135
C 0.856035 0.807801 0.448833
H 3.50478 11.6818 4.33997
H 6.21899 0.493065 9.36887
C 5.13249 12.3604 5.59019
C 2.00535 0.0565649 0.848076
C 5.67385 12.1583 6.86214
C 2.49265 0.397218 2.13876
H 12.339 0.269717 7.40634
H 3.48287 0.0651927 2.40241
C 2.10332 7.07246 5.61591
C 6.00637 5.91466 0.599574
H 2.4588 7.04771 4.59514
H 11.6901 5.46501 9.44053
C 2.85375 7.82797 6.60754
C 6.48065 4.80887 1.41599
H 3.83714 8.19395 6.34938
C 3.22877 10.9032 6.37553
C 0.0656285 1.57044 1.40973
C 5.03638 11.2948 7.81543
C 1.81854 1.39778 2.99119
H 5.41583 11.2308 8.79239
C 1.04198 7.64618 8.11836
C 4.50722 4.88311 2.7243
C 0.416947 6.63259 7.24753
C 4.04877 6.04365 1.97642
H 5.74501 5.95891 6.62268
H 3.09243 6.48382 2.22758
C 0.957648 6.30176 5.9751
C 4.78614 6.57689 0.887856
C 5.7517 0.936329 4.60515
C 2.43895 11.3966 10.1803
C 0.34262 5.12645 5.00318
C 4.24863 7.8312 0.0409437
Ni 8.83044 9.1716 8.6829
Ni 12.1606 3.26205 3.9044
O 7.96304 3.84402 3.86688
O 10.2572 8.08683 8.87876
O 10.7125 2.1637 4.04271
O 7.36887 10.2276 8.81665
O 11.6175 4.53836 5.11003
O 8.24461 7.82972 9.75526
O 6.99197 1.47278 4.75582
O 9.11718 10.1358 10.1213
N 9.69214 10.59 7.51995
N 7.11278 1.7707 2.10222
N 8.27741 8.14702 7.11083
N 11.4619 4.38838 2.37457
C 9.53439 12.1714 5.61815
C 6.73249 0.389714 0.113848
H 9.01483 12.4373 4.71892
H 0.297676 0.760044 9.69627
C 10.7231 0.332633 5.96996
C 7.79924 12.0471 0.445717
C 11.388 12.3609 7.12594
C 8.58082 12.4336 1.542
H 6.58098 0.153981 7.14015
H 9.43462 11.8364 1.83667
C 8.95433 6.30184 5.67978
C 11.4547 5.39735 0.128738
H 9.77313 5.71631 5.40635
H 6.35046 6.21191 10.0078
C 9.20723 7.57202 6.27912
C 12.1374 4.66775 1.20032
H 7.43261 4.35818 1.17458
C 9.01233 11.0898 6.42333
C 6.31198 1.42333 1.02901
H 8.07497 10.637 6.13319
H 11.597 1.93345 1.11272
C 10.8808 11.2177 7.87801
C 8.29051 1.0962 2.25977
H 8.90318 1.34829 3.07587
C 6.99496 7.66521 7.05855
C 10.2779 5.05466 2.58551
H 6.22355 8.18037 7.58818
H 9.83006 4.97414 3.52115
C 6.68798 6.43291 6.40919
C 9.72092 5.98884 1.65486
H 11.9297 6.2838 7.47758
H 8.85567 6.57124 1.94471
C 7.66092 5.75732 5.63993
C 10.2809 6.16835 0.389178
C 11.3063 1.56048 5.10724
C 7.96186 10.7556 9.92581
C 7.33441 4.38534 4.953
C 9.49023 7.28144 9.66876
O 1.84714 10.8083 6.32383
C 1.40495 10.2084 5.12345
H 0.974886 10.9904 4.46245
H 0.603326 9.48931 5.37308
H 2.18616 9.65191 4.55491
O 2.59261 2.09124 3.89621
C 2.4741 1.67431 5.239
H 3.45526 1.6045 5.7046
H 1.89117 0.740617 5.38894
H 2.10086 2.51137 5.85843
O 0.226566 8.33053 8.99254
C 0.559222 7.91317 0.0627093
H 12.0787 7.83053 0.513221
H 0.917258 8.7503 0.689423
H 1.13998 6.97955 0.221213
O 3.62013 4.26856 3.57141
C 3.7833 4.70075 4.90487
H 2.84599 4.79336 5.40535
H 4.07042 3.86891 5.56251
H 4.35947 5.64194 5.02231
O 11.7413 10.5823 8.74368
C 11.5108 10.9268 10.0956
H 0.152901 11.0118 0.370407
H 11.4225 10.0437 0.395295
H 10.8819 11.8339 10.2592
O 5.08608 2.03999 0.850225
C 4.82709 2.71148 9.87679
H 4.34757 2.05903 9.11586
H 4.21059 3.62454 9.975
H 5.82627 3.04392 9.50507
O 10.4016 8.21703 6.03232
C 10.3907 8.71031 4.70408
H 10.8999 7.98469 4.03408
H 10.9533 9.66305 4.66969
H 9.37518 8.94148 4.29829
O 1.0148 4.58192 1.19044
C 1.49885 3.97577 0.0094032
H 1.75351 4.74942 9.64952
H 2.27121 3.23676 0.293581
H 0.505434 3.44205 9.67345
140
Atoms. Timestep: 166
Ni 3.17154 9.52504 9.0952
Ni 6.48894 2.81995 3.64719
O 1.06073 4.38766 4.10703
O 4.63928 8.43084 9.25985
O 5.03679 1.75168 3.7696
O 1.75015 10.6367 9.27682
O 6.14736 3.80046 5.07357
O 3.05313 8.43401 0.221551
O -0.01126 2.1669 5.31165
O 3.91539 10.8346 0.0391562
N 3.87006 10.6385 7.57275
N 0.579102 1.93596 2.64012
N 2.29156 8.1893 7.8172
N 5.71723 4.2632 2.43728
C 3.94363 11.6191 5.31349
C 0.856035 0.807812 0.448848
H 3.50478 11.6818 4.33997
H 6.21899 0.493066 9.36887
C 5.13249 12.3604 5.59018
C 2.00536 0.05657 0.848075
C 5.67386 12.1583 6.86214
C 2.49264 0.397222 2.13874
H 12.339 0.269711 7.40635
H 3.48288 0.0651931 2.40241
C 2.10331 7.07246 5.61593
C 6.00637 5.91467 0.599593
H 2.4588 7.04771 4.59514
H 11.6901 5.46501 9.44053
C 2.85375 7.82797 6.60753
C 6.48065 4.80888 1.41598
H 3.83714 8.19396 6.34936
C 3.22876 10.9032 6.37553
C 0.0656241 1.57044 1.40972
C 5.03639 11.2948 7.81542
C 1.81854 1.39779 2.99121
H 5.41582 11.2308 8.7924
C 1.04198 7.64618 8.11836
C 4.50723 4.88312 2.72429
C 0.416957 6.6326 7.24752
C 4.04877 6.04365 1.97641
H 5.745 5.95891 6.62269
H 3.09242 6.48381 2.22758
C 0.957653 6.30176 5.9751
C 4.78613 6.57687 0.887852
C 5.75171 0.936337 4.60514
C 2.43895 11.3966 10.1803
C 0.342619 5.12646 5.00318
C 4.24861 7.83121 0.0409378
Ni 8.83045 9.17161 8.6829
Ni 12.1606 3.26205 3.90439
O 7.96303 3.84403 3.86688
O 10.2572 8.08683 8.87876
O 10.7125 2.16369 4.04271
O 7.36887 10.2276 8.81664
O 11.6175 4.53836 5.11004
O 8.24462 7.82972 9.75527
O 6.99196 1.47277 4.75582
O 9.11718 10.1358 10.1213
N 9.69212 10.59 7.51995
N 7.11276 1.77071 2.10223
N 8.2774 8.14701 7.11083
N 11.4619 4.38836 2.37459
C 9.53438 12.1713 5.61815
C 6.73248 0.38973 0.113846
H 9.01483 12.4373 4.71892
H 0.297681 0.760039 9.69627
C 10.7232 0.332632 5.96996
C 7.79925 12.0471 0.445704
C 11.388 12.3609 7.12593
C 8.58083 12.4336 1.542
H 6.58099 0.153983 7.14014
H 9.43462 11.8364 1.83667
C 8.95434 6.30184 5.6798
C 11.4547 5.39736 0.128745
H 9.77313 5.7163 5.40637
H 6.35046 6.21191 10.0078
C 9.20723 7.57202 6.27913
C 12.1374 4.66776 1.2003
H 7.43261 4.35819 1.17458
C 9.01234 11.0898 6.42333
C 6.31199 1.42334 1.02902
H 8.07496 10.637 6.13319
H 11.597 1.93345 1.11272
C 10.8808 11.2177 7.87801
C 8.29051 1.09619 2.25977
H 8.90317 1.34829 3.07588
C 6.99498 7.66522 7.05856
C 10.2779 5.05468 2.5855
H 6.22356 8.18037 7.58818
H 9.83007 4.97413 3.52116
C 6.68798 6.4329 6.4092
C 9.72092 5.98883 1.65486
H 11.9297 6.28379 7.47758
H 8.85567 6.57124 1.94472
C 7.66091 5.75731 5.63994
C 10.2809 6.16835 0.38916
C 11.3063 1.56047 5.10724
C 7.96187 10.7556 9.92583
C 7.33442 4.38536 4.95301
C 9.49022 7.28146 9.66876
O 1.84715 10.8083 6.32383
C 1.40494 10.2084 5.12343
H 0.974879 10.9904 4.46245
H 0.603338 9.4893 5.37309
H 2.18616 9.65191 4.5549
O 2.59261 2.09124 3.8962
C 2.4741 1.6743 5.23899
H 3.45526 1.6045 5.7046
H 1.89117 0.740615 5.38894
H 2.10087 2.51137 5.85843
O 0.226563 8.33054 8.99255
C 0.559222 7.91317 0.0627005
H 12.0787 7.83053 0.513222
H 0.917261 8.75029 0.689417
H 1.13999 6.97954 0.221212
O 3.62013 4.26857 3.57142
C 3.78329 4.70074 4.90485
H 2.84599 4.79336 5.40536
H 4.07042 3.86891 5.56251
H 4.35946 5.64193 5.02231
O 11.7413 10.5823 8.74369
C 11.5108 10.9268 10.0956
H 0.152905 11.0118 0.370403
H 11.4225 10.0437 0.395295
H 10.8819 11.8339 10.2592
O 5.08609 2.04 0.850216
C 4.82709 2.71148 9.8768
H 4.34757 2.05903 9.11585
H 4.21058 3.62454 9.975
H 5.82627 3.04393 9.50507
O 10.4016 8.21703 6.03231
C 10.3907 8.7103 4.70409
H 10.8999 7.98468 4.03408
H 10.9533 9.66304 4.66969
H 9.37517 8.94149 4.29831
O 1.0148 4.58192 1.19046
C 1.49885 3.97576 0.00938889
H 1.7535 4.7494 9.64952
H 2.2712 3.23676 0.29358
H 0.505431 3.44204 9.67346
140
Atoms. Timestep: 167
Ni 3.17154 9.52504 9.0952
Ni 6.48894 2.81995 3.64719
O 1.06073 4.38766 4.10703
O 4.63928 8.43084 9.25985
O 5.03679 1.75168 3.7696
O 1.75015 10.6367 9.27682
O 6.14736 3.80046 5.07357
O 3.05313 8.43401 0.221551
O -0.01126 2.1669 5.31165
O 3.91539 10.8346 0.0391562
N 3.87006 10.6385 7.57275
N 0.579102 1.93596 2.64012
N 2.29156 8.1893 7.8172
N 5.71723 4.2632 2.43728
C 3.94363 11.6191 5.31349
C 0.856035 0.807812 0.448848
H 3.50478 11.6818 4.33997
H 6.21899 0.493066 9.36887
C 5.13249 12.3604 5.59018
C 2.00536 0.05657 0.848075
C 5.67386 12.1583 6.86214
C 2.49264 0.397222 2.13874
H 12.339 0.269711 7.40635
H 3.48288 0.0651931 2.40241
C 2.10331 7.07246 5.61593
C 6.00637 5.91467 0.599593
H 2.4588 7.04771 4.59514
H 11.6901 5.46501 9.44053
C 2.85375 7.82797 6.60753
C 6.48065 4.80888 1.41598
H 3.83714 8.19396 6.34936
C 3.22876 10.9032 6.37553
C 0.0656241 1.57044 1.40972
C 5.03639 11.2948 7.81542
C 1.81854 1.39779 2.99121
H 5.41582 11.2308 8.7924
C 1.04198 7.64618 8.11836
C 4.50723 4.88312 2.72429
C 0.416957 6.6326 7.24752
C 4.04877 6.04365 1.97641
H 5.745 5.95891 6.62269
H 3.09242 6.48381 2.22758
C 0.957653 6.30176 5.9751
C 4.78613 6.57687 0.887852
C 5.75171 0.936337 4.60514
C 2.43895 11.3966 10.1803
C 0.342619 5.12646 5.00318
C 4.24861 7.83121 0.0409378
Ni 8.83045 9.17161 8.6829
Ni 12.1606 3.26205 3.90439
O 7.96303 3.84403 3.86688
O 10.2572 8.08683 8.87876
O 10.7125 2.16369 4.04271
O 7.36887 10.2276 8.81664
O 11.6175 4.53836 5.11004
O 8.24462 7.82972 9.75527
O 6.99196 1.47277 4.75582
O 9.11718 10.1358 10.1213
N 9.69212 10.59 7.51995
N 7.11276 1.77071 2.10223
N 8.2774 8.14701 7.11083
N 11.4619 4.38836 2.37459
C 9.53438 12.1713 5.61815
C 6.73248 0.38973 0.113846
H 9.01483 12.4373 4.71892
H 0.297681 0.760039 9.69627
C 10.7232 0.332632 5.96996
C 7.79925 12.0471 0.445704
C 11.388 12.3609 7.12593
C 8.58083 12.4336 1.542
H 6.58099 0.153983 7.14014
H 9.43462 11.8364 1.83667
C 8.95434 6.30184 5.6798
C 11.4547 5.39736 0.128745
H 9.77313 5.7163 5.40637
H 6.35046 6.21191 10.0078
C 9.20723 7.57202 6.27913
C 12.1374 4.66776 1.2003
H 7.43261 4.35819 1.17458
C 9.01234 11.0898 6.42333
C 6.31199 1.42334 1.02902
H 8.07496 10.637 6.13319
H 11.597 1.93345 1.11272
C 10.8808 11.2177 7.87801
C 8.29051 1.09619 2.25977
H 8.90317 1.34829 3.07588
C 6.99498 7.66522 7.05856
C 10.2779 5.05468 2.5855
H 6.22356 8.18037 7.58818
H 9.83007 4.97413 3.52116
C 6.68798 6.4329 6.4092
C 9.72092 5.98883 1.65486
H 11.9297 6.28379 7.47758
H 8.85567 6.57124 1.94472
C 7.66091 5.75731 5.63994
C 10.2809 6.16835 0.38916
C 11.3063 1.56047 5.10724
C 7.96187 10.7556 9.92583
C 7.33442 4.38536 4.95301
C 9.49022 7.28146 9.66876
O 1.84715 10.8083 6.32383
C 1.40494 10.2084 5.12343
H 0.974879 10.9904 4.46245
H 0.603338 9.4893 5.37309
H 2.18616 9.65191 4.5549
O 2.59261 2.09124 3.8962
C 2.4741 1.6743 5.23899
H 3.45526 1.6045 5.7046
H 1.89117 0.740615 5.38894
H 2.10087 2.51137 5.85843
O 0.226563 8.33054 8.99255
C 0.559222 7.91317 0.0627005
H 12.0787 7.83053 0.513222
H 0.917261 8.75029 0.689417
H 1.13999 6.97954 0.221212
O 3.62013 4.26857 3.57142
C 3.78329 4.70074 4.90485
H 2.84599 4.79336 5.40536
H 4.07042 3.86891 5.56251
H 4.35946 5.64193 5.02231
O 11.7413 10.5823 8.74369
C 11.5108 10.9268 10.0956
H 0.152905 11.0118 0.370403
H 11.4225 10.0437 0.395295
H 10.8819 11.8339 10.2592
O 5.08609 2.04 0.850216
C 4.82709 2.71148 9.8768
H 4.34757 2.05903 9.11585
H 4.21058 3.62454 9.975
H 5.82627 3.04393 9.50507
O 10.4016 8.21703 6.03231
C 10.3907 8.7103 4.70409
H 10.8999 7.98468 4.03408
H 10.9533 9.66304 4.66969
H 9.37517 8.94149 4.29831
O 1.0148 4.58192 1.19046
C 1.49885 3.97576 0.00938889
H 1.7535 4.7494 9.64952
H 2.2712 3.23676 0.29358
H 0.505431 3.44204 9.67346
