164

Ni	2.9926	9.3297	8.9240
Ni	6.3124	3.0972	3.8971
O	0.9518	4.6143	3.6807
O	4.2649	7.9964	9.0658
O	4.9647	1.8785	4.0775
O	1.7295	10.6698	9.0035
O	5.8963	4.2433	5.1957
O	2.4587	8.1396	10.2405
O	0.0970	2.3290	4.8078
O	3.6766	10.4687	0.0433
N	3.9940	10.4702	7.6014
N	0.8692	2.0672	2.2606
N	2.0408	8.2330	7.5059
N	5.4148	4.2641	2.5520
C	4.2545	11.5264	5.3814
C	0.9225	0.6510	0.2398
H	3.9163	11.5857	4.3631
H	6.6866	0.8903	9.5813
C	5.2164	12.4526	5.8515
C	1.9920	12.3851	0.6952
C	5.6878	12.2260	7.1627
C	2.4987	0.1877	1.9856
H	0.1304	0.5789	6.9766
H	3.3888	12.2102	2.3313
C	1.8322	7.2332	5.2390
C	5.6425	5.7634	0.6056
H	2.2704	7.1431	4.2584
H	11.7065	5.5893	9.0755
C	2.5992	7.8948	6.2828
C	6.1394	4.7366	1.4742
H	3.6420	8.1056	6.0984
C	3.5515	10.6662	6.3010
C	0.3131	1.6463	1.0663
H	2.5519	10.3661	6.0310
H	5.6253	2.0231	1.0887
C	5.1109	11.2159	8.0278
C	1.9245	1.2681	2.7912
C	0.7918	7.6785	7.8200
C	4.1697	4.8681	2.8326
C	0.1191	6.7587	6.8485
C	3.6686	5.9320	1.9728
H	5.5835	6.6275	6.6346
H	2.6776	6.3257	2.1472
C	0.6462	6.4998	5.5327
C	4.3926	6.3750	0.8267
C	5.6476	1.2361	5.0425
C	2.3754	11.2406	10.0422
C	0.1360	5.2794	4.5248
C	3.5653	7.4061	10.0544
Ni	9.2859	9.5902	8.5768
Ni	12.2485	3.2978	3.4079
O	7.6592	4.3319	3.9459
O	10.4546	8.2463	8.6577
O	11.0326	1.9419	3.3888
O	8.0971	10.9791	8.7736
O	11.4738	4.5513	4.5757
O	8.6232	8.4303	9.8565
O	6.7767	1.9032	5.2244
O	9.9229	10.7069	9.9487
N	10.2043	10.7096	7.1894
N	7.1855	1.9495	2.5362
N	8.4098	8.4792	7.1611
N	11.4990	4.2943	1.8494
C	10.2463	11.7848	5.0049
C	7.3186	0.9017	0.2965
H	9.9267	11.6804	3.9937
H	0.3304	0.5199	9.5097
C	11.3145	0.1274	5.3256
C	8.5047	0.1694	0.5730
C	11.8793	12.4301	6.6057
C	9.1038	0.4951	1.8527
H	6.4846	0.3261	7.5315
H	10.0666	0.0676	2.0785
C	8.8202	6.4923	5.7862
C	11.3480	5.6162	10.0738
H	9.5571	5.7352	5.5822
H	6.0159	6.0702	10.0331
C	9.2221	7.7778	6.2611
C	12.2305	4.7905	0.7935
H	7.1223	4.3347	1.2828
C	9.5307	11.0902	6.0466
C	6.6165	1.6549	1.3130
H	11.8764	2.0615	0.7437
C	11.3440	11.4343	7.4977
C	8.4287	1.3974	2.8527
H	11.7161	11.4294	8.4966
C	7.1455	7.9355	7.3711
C	10.1708	4.6748	1.9273
H	6.7222	7.9420	8.3389
H	9.5377	4.1788	2.6223
C	6.6090	6.9420	6.5016
C	9.6411	5.7813	1.1691
H	11.7008	6.2791	7.1181
H	8.6765	6.1970	1.4251
C	7.4732	6.1613	5.7268
C	10.3642	6.3054	0.0899
C	11.6901	1.4296	4.4610
C	8.8384	11.5337	9.7830
C	6.9784	4.9555	4.9164
C	9.6822	7.6127	9.5627
O	5.4267	11.3110	9.3905
C	5.9647	10.1240	9.9756
C	6.6844	10.3130	1.1047
H	6.6305	9.5850	9.3678
H	5.2639	9.3941	10.1934
H	7.7775	10.1993	1.1604
H	6.3075	9.5005	1.7719
H	6.3214	11.2832	1.4926
O	2.6592	1.6910	3.9261
C	2.2595	1.1348	5.1879
C	2.8672	1.2742	6.6349
H	1.5461	0.2920	5.1104
H	1.9373	2.0744	5.5090
H	2.9334	0.3191	7.1526
H	2.1762	1.7298	7.4013
H	3.8108	1.8406	6.7096
O	0.3962	7.6080	9.1836
C	0.0306	8.8232	9.8943
C	12.1727	8.5772	1.0007
H	12.0426	9.5750	9.2940
H	1.0359	9.3718	0.0424
H	11.1126	8.8531	1.0236
H	0.1011	9.2196	1.8099
H	12.3891	7.5412	1.3041
O	3.2534	4.2583	3.7288
C	3.4958	4.5356	5.1118
C	2.5019	4.4496	6.2966
H	3.9504	3.5886	5.3967
H	4.0386	5.5003	5.2429
H	1.5095	4.0358	6.1028
H	2.9177	3.8529	7.1331
H	2.4700	5.3884	6.8611
O	8.1621	11.2540	6.1152
C	7.4524	10.3604	5.2826
C	7.1589	10.9729	3.9623
H	7.9084	9.4072	5.0525
H	6.5109	10.0779	5.7860
H	7.9814	10.7113	3.2748
H	6.1715	10.6008	3.6354
H	7.1140	12.0539	4.0141
O	8.8067	1.2947	4.2460
C	9.1867	2.4478	5.0976
C	9.6055	2.1076	6.5522
H	8.4386	3.0985	5.4385
H	9.7538	3.2088	4.6068
H	9.2863	1.0911	6.8386
H	9.1294	2.7703	7.3168
H	10.6843	2.2865	6.7155
O	10.5055	8.2150	5.9898
C	10.6349	8.6862	4.6554
C	10.8048	7.6058	3.6122
H	9.8020	9.3004	4.3069
H	11.5317	9.3409	4.6169
H	10.2337	7.8953	2.7148
H	11.8755	7.4902	3.3878
H	10.4020	6.6352	3.8792
O	1.1055	4.6538	0.7868
C	1.3359	4.1214	9.8295
C	2.6878	3.4317	10.0267
H	1.4771	4.9538	9.1076
H	0.6254	3.3935	9.3714
H	2.7248	2.4753	9.4725
H	3.1035	3.2040	0.8205
H	3.5065	4.0721	9.6417
