204

Ni	1.9966	8.9374	9.1802
Ni	6.2239	3.9376	4.1716
O	-0.4806	4.3313	4.1080
O	3.4317	7.9357	9.2737
O	4.7546	3.0529	4.3048
O	0.5339	9.9302	9.3008
O	5.8775	5.2179	5.4074
O	1.6507	7.7120	10.4889
O	13.9749	2.3704	4.9945
O	2.6014	10.1175	-0.2056
N	2.8840	10.2196	7.8624
N	-1.3473	2.3574	2.3288
N	1.1523	7.6985	7.8169
N	5.5252	5.1508	2.6779
C	3.2667	11.3189	5.7332
C	0.3014	2.2183	0.4745
H	3.2916	11.0053	4.7025
H	7.0130	2.1886	10.3083
C	4.3122	1.5349	6.2328
C	0.4318	11.4212	0.5901
C	4.4919	1.4319	7.5915
C	-0.5801	10.8444	1.3816
H	11.3861	3.1656	6.9258
H	-0.7906	9.7903	1.3182
C	0.3714	7.1362	5.5704
C	4.9243	5.4278	0.2893
H	0.1521	7.5121	4.5913
H	11.3304	5.3383	-0.0997
C	1.2077	7.8979	6.4590
C	5.8010	4.9105	1.3409
H	1.9636	8.4772	6.0434
C	2.3723	10.6641	6.6721
C	-0.7131	2.9320	1.2323
H	1.3304	10.5235	6.4389
C	4.1783	10.7403	8.1376
C	-0.9878	0.9953	2.5385
C	0.1700	6.7552	8.2026
C	4.5660	6.1640	2.8691
C	0.0464	5.6264	7.3530
C	4.3393	7.0972	1.8130
H	6.5116	6.1849	7.9525
H	3.9561	8.0811	2.0362
C	-0.2243	5.9380	6.0238
C	4.0972	6.5464	0.5759
C	5.2398	2.3565	5.3068
C	1.0779	10.5923	10.3095
C	-1.0364	5.0160	5.1013
C	2.9228	7.2322	10.2539
Ni	10.1376	9.4267	9.5448
Ni	13.9458	3.6458	3.7650
O	7.7591	4.8569	4.3284
O	11.6881	8.5881	9.6807
O	12.2949	2.9391	3.6912
O	8.6059	10.2778	9.7167
O	13.6139	4.8271	5.1094
O	10.1576	8.3943	0.2527
O	6.5256	2.7685	5.5552
O	10.7439	10.7659	-0.0278
N	10.6768	10.5983	7.9426
N	6.9555	2.5881	2.9068
N	9.4125	7.9448	8.3611
N	13.5635	5.0394	2.4379
C	11.2126	10.7417	5.5478
C	7.4387	1.9429	0.6222
H	11.2597	10.2384	4.5926
H	0.6665	2.7351	10.4781
C	11.6770	1.4704	5.6710
C	8.6364	1.3013	0.9507
C	11.3338	2.0926	6.8575
C	9.0186	1.3683	2.2969
H	5.2021	2.0829	8.0771
H	9.9639	11.5384	2.6131
C	9.3635	6.7418	6.2252
C	12.0041	5.6532	0.6721
H	9.8802	6.4701	5.3180
H	4.8617	5.1445	9.9830
C	10.0790	7.4492	7.2601
C	12.7149	4.6917	1.4262
H	11.1305	7.6528	7.1311
H	6.7723	4.5670	1.0705
C	10.4699	10.1639	6.6387
C	6.4634	2.2522	1.6529
H	9.5605	9.6459	6.3911
H	-0.8667	3.9637	1.0170
C	11.2965	1.2847	8.0352
C	8.2053	2.0796	3.2410
H	8.6169	2.2861	4.2163
C	8.2592	7.2479	8.7158
C	13.7020	6.3901	2.7179
H	-1.6431	6.7261	3.4789
C	7.4620	6.6259	7.6862
C	12.9826	7.3793	1.9875
H	-0.2384	4.6641	7.7552
H	13.1147	8.4271	2.2285
C	8.0031	6.3670	6.4073
C	12.1453	7.0029	0.9293
C	12.6754	2.1156	4.6838
C	9.4317	11.0945	-0.1183
C	7.1801	5.6114	5.2858
C	11.4241	8.0188	0.0691
C	5.4121	9.7964	8.1459
C	5.6523	9.2402	9.5571
H	5.8564	8.1627	9.5070
H	6.4555	9.7518	10.0866
H	4.8088	9.4194	10.2431
C	6.7318	10.5035	7.6848
H	6.6619	10.8545	6.6351
H	6.9902	11.3705	8.3234
H	7.5746	9.7895	7.6727
C	5.2162	8.7059	7.0862
H	6.1425	8.4316	6.5490
H	4.8030	7.7656	7.4738
H	4.5944	9.1182	6.2835
C	-0.1960	11.1609	3.8110
C	0.5701	1.7987	4.3445
H	0.6968	2.5473	3.5659
H	1.6175	1.6618	4.4284
H	0.2298	2.1971	5.3131
C	-1.1330	10.4702	4.8472
H	13.8380	10.4117	4.4829
H	-1.0890	10.9400	5.8504
H	-0.8799	9.4169	5.0228
C	0.9128	10.1033	3.4756
H	0.4644	9.1987	3.0405
H	1.4335	9.7544	4.3665
H	1.6890	10.4983	2.7857
C	-1.2420	7.2566	8.6701
C	-1.2824	7.7328	10.1266
H	-0.4515	8.3131	10.4552
H	13.8887	8.3999	10.3153
H	-1.1200	6.8707	0.0943
C	13.6941	6.1212	8.6211
H	13.4900	5.7735	7.5884
H	13.9976	5.2584	9.2512
H	12.7181	6.4744	8.9892
C	-1.7542	8.3375	7.6846
H	-1.1901	9.2849	7.7510
H	-1.7336	7.9899	6.6421
H	13.1830	8.5174	7.8038
C	3.4285	6.1314	3.9037
C	3.0454	4.9083	4.7543
H	3.7246	4.6611	5.5762
H	2.1535	5.1465	5.3529
H	2.7186	4.0562	4.1313
C	2.0941	6.4546	3.1420
H	1.9214	7.5390	3.0528
H	2.0945	6.0508	2.1214
H	1.1951	5.9618	3.5245
C	3.8278	7.2739	4.8213
H	4.9291	7.4006	4.8704
H	3.4512	8.2554	4.4645
H	3.5233	7.0648	5.8501
C	12.3941	1.6389	9.0797
C	13.1170	11.0094	9.6573
H	13.0517	10.2317	8.9206
H	-1.8112	11.1478	9.7386
H	13.0261	10.6833	-0.0606
C	11.7849	2.5368	10.1630
H	12.3799	2.2691	0.4586
H	12.0523	3.5725	9.9350
H	10.6812	2.5617	10.1606
C	13.5464	2.4642	8.4070
H	13.9919	1.8752	7.5810
H	13.2214	3.4325	7.9880
H	-1.6956	2.7395	9.1522
C	5.0193	1.6814	1.4493
C	3.7554	2.3634	2.0400
H	3.8391	3.4515	2.1137
H	2.8476	2.2007	1.4296
H	3.4106	1.8847	2.9697
C	5.0467	10.8183	1.9613
H	5.1843	10.8072	3.0632
H	4.0926	10.3063	1.7412
H	5.8866	10.2390	1.5279
C	4.7527	1.7439	-0.0534
H	5.1836	1.0523	10.1735
H	3.4879	1.5181	10.3520
H	4.7362	2.7585	10.2856
C	8.2047	6.5767	10.0424
C	7.8154	7.2472	0.5258
H	7.9236	8.3426	0.5394
H	6.7457	7.1034	0.5375
H	8.2381	6.8300	1.4628
C	8.4730	5.0996	10.0954
H	9.2468	4.8185	9.3572
H	9.0481	4.7884	0.3842
H	7.5500	4.5535	9.8291
C	9.3613	8.6068	3.3456
H	6.8292	9.5834	4.4191
H	8.8693	2.4831	8.6405
H	4.9828	4.4222	7.6731
C	10.1834	4.9718	3.0638
C	2.6900	3.7571	8.9345
H	8.6091	1.5740	6.4366
H	1.5483	3.9556	2.1587
H	0.0009	7.3990	1.8819
C	0.9664	5.2104	-0.0830
H	12.3544	7.8611	4.9523
H	9.2063	3.8502	6.3936
H	7.1390	3.6527	7.7863
C	0.4994	1.9691	7.9612
H	11.1007	5.0507	8.0696
H	3.2004	5.9406	7.6908
H	2.0976	3.1515	6.4052
