204
Atoms. Timestep: 0
Ni 2.89857 9.41116 8.59265
Ni 6.17525 3.10579 3.48481
O 1.44827 4.35425 3.93374
O 4.4416 8.15245 9.05464
O 4.63665 1.84729 3.87523
O 1.36499 10.6744 9.00295
O 5.80609 4.46033 4.96242
O 2.54244 8.0327 10.0675
O 0.25117 1.69264 4.94273
O 3.23722 10.8047 10.0626
N 3.69677 10.6606 7.2416
N 0.71256 1.8642 2.11704
N 2.17217 8.14409 7.25198
N 5.44023 4.39481 2.13747
C 3.48546 12.1483 5.36301
C 0.47488 0.38955 0.2292
H 2.86453 12.5181 4.55267
H 5.86971 0.03371 9.69377
C 4.76073 0.1474 5.61481
C 1.74333 12.3699 0.47412
C 5.50345 12.1502 6.68209
C 2.49852 0.35508 1.54004
H 0.24768 12.5084 6.91993
H 3.49155 12.5067 1.77336
C 2.48363 6.6337 5.40822
C 5.72803 5.90364 0.28669
H 3.13294 6.27291 4.61605
H -0.10828 6.26667 9.7662
C 2.92756 7.68099 6.23068
C 6.1883 4.86756 1.11596
H 3.89994 8.14655 6.0889
C 2.98256 11.1359 6.19748
C -0.01036 1.40553 1.07106
H 1.99392 10.709 6.04703
C 4.93641 11.1381 7.47507
C 1.94823 1.3719 2.3406
C 0.94573 7.62654 7.47302
C 4.21083 4.90458 2.35686
C 0.43859 6.57577 6.69176
C 3.68763 5.945 1.56944
H 5.70774 6.17693 6.91975
H 2.69824 6.32683 1.80071
C 1.22745 6.06471 5.65205
C 4.46338 6.45777 0.52027
C 5.3126 1.24381 4.79419
C 2.0502 11.2675 9.92158
C 0.73548 4.94016 4.83586
C 3.73174 7.56629 9.95688
Ni 9.15137 9.41116 8.59265
Ni 12.4281 3.10579 3.48481
O 7.70109 4.35425 3.93374
O 10.6944 8.15245 9.05464
O 10.8895 1.84729 3.87523
O 7.61779 10.6744 9.00295
O 12.0589 4.46033 4.96242
O 8.79524 8.0327 10.0675
O 6.50397 1.69264 4.94273
O 9.49002 10.8047 10.0626
N 9.94957 10.6606 7.2416
N 6.96536 1.8642 2.11704
N 8.42499 8.14409 7.25198
N 11.693 4.39481 2.13747
C 9.73826 12.1483 5.36301
C 6.72768 0.38955 0.2292
H 9.11733 12.5181 4.55267
H 12.1225 0.03371 9.69377
C 11.0135 0.1474 5.61481
C 7.99613 12.3699 0.47412
C 11.7562 12.1502 6.68209
C 8.75132 0.35508 1.54004
H 6.50047 12.5084 6.91993
H 9.74435 12.5067 1.77336
C 8.73644 6.6337 5.40822
C 11.9808 5.90364 0.28669
H 9.38574 6.27291 4.61605
H 6.14452 6.26667 9.7662
C 9.18036 7.68099 6.23068
C 12.4411 4.86756 1.11596
H 10.1527 8.14655 6.0889
H 7.16869 4.41889 0.97634
C 9.23536 11.1359 6.19748
C 6.24244 1.40553 1.07106
H 8.24672 10.709 6.04703
H 11.5137 1.85011 0.92351
C 11.1892 11.1381 7.47507
C 8.20102 1.3719 2.3406
H 8.76167 1.79214 3.17267
C 7.19853 7.62654 7.47302
C 10.4636 4.90458 2.35686
H 9.88885 4.47744 3.17528
C 6.69139 6.57577 6.69176
C 9.94043 5.945 1.56944
H 11.9605 6.17693 6.91975
H 8.95104 6.32683 1.80071
C 7.48025 6.06471 5.65205
C 10.7162 6.45777 0.52027
C 11.5654 1.24381 4.79419
C 8.303 11.2675 9.92158
C 6.98827 4.94016 4.83586
C 9.98454 7.56629 9.95688
C 5.73201 10.4708 8.72882
C 4.90815 9.3684 9.46373
H 4.66062 8.52277 8.78519
H 5.71149 8.9371 0.03827
H 3.96807 9.77898 9.89321
C 6.00983 11.5295 9.82854
H 5.04599 11.9307 10.211
H 6.78025 11.0717 0.40969
H 6.58293 12.4117 9.52916
C 7.00311 9.72779 8.2393
H 6.7118 8.90906 7.54573
H 7.73622 10.3197 7.68391
H 7.54458 9.27243 9.09691
C 2.76027 2.02576 3.59055
C 1.95427 3.13525 4.33456
H 1.71179 3.98578 3.66035
H 2.54082 3.55725 5.18066
H 1.01254 2.73415 4.76932
C 3.03351 0.96048 4.68507
H 2.06779 0.56918 5.07302
H 3.58749 1.40937 5.53809
H 3.59432 0.07276 4.37901
C 4.03641 2.75566 3.09447
H 3.74976 3.57985 2.40546
H 4.75879 2.15712 2.53217
H 4.58904 3.2021 3.94967
C 0.09925 8.29166 8.69178
C 0.8642 9.44192 9.41699
H 1.09441 10.2803 8.72349
H 0.25386 9.87056 10.2427
H 1.80945 9.07802 9.87617
C -0.16243 7.24917 9.81079
H 0.80725 6.89444 10.2233
H 11.9921 7.70575 0.36884
H 11.8107 6.33883 9.52086
C 11.3176 8.9735 8.15749
H 11.5929 9.78632 7.45055
H 10.62 8.34095 7.60123
H 10.7404 9.42772 8.99209
C 3.37389 4.24229 3.58574
C 4.15214 3.10531 4.31771
H 5.09585 3.48172 4.76993
H 3.54899 2.67833 5.14952
H 4.3872 2.26313 3.63053
C 2.09078 3.5442 3.06257
H 2.37062 2.72782 2.36154
H 1.52104 3.09201 3.90338
H 1.38522 4.16558 2.50372
C 3.1072 5.29201 4.69675
H 4.07524 5.65905 5.10222
H 2.56537 6.19495 4.40115
H 2.53605 4.83744 5.53533
C 11.9848 10.4708 8.72882
C 11.1609 9.3684 9.46373
H 10.9134 8.52277 8.78519
H 11.9643 8.9371 0.03827
H 10.2209 9.77898 9.89321
C 12.2626 11.5295 9.82854
H 11.2988 11.9307 10.211
H 0.52745 11.0717 0.40969
H 0.33013 12.4117 9.52916
C 0.75031 9.72779 8.2393
H 0.459 8.90906 7.54573
H 1.48342 10.3197 7.68391
H 1.29178 9.27243 9.09691
C 4.78841 2.09782 0.85059
C 4.46423 3.19965 1.90655
H 5.199 4.03346 1.86579
H 3.463 3.64868 1.72245
H 4.44133 2.7834 2.93755
C 3.65225 1.05674 1.03143
H 3.68209 0.64898 2.06539
H 2.65861 1.532 0.88029
H 3.68184 0.17774 0.38125
C 4.51139 2.84965 9.76851
H 5.27703 3.65586 9.76165
H 4.71603 2.25947 8.8707
H 3.51626 3.32246 9.61947
C 6.35207 8.29167 8.69178
C 7.11701 9.44193 9.41698
H 7.34722 10.2803 8.72348
H 6.50666 9.87057 10.2427
H 8.06226 9.07802 9.87617
C 6.09037 7.24918 9.81079
H 7.06005 6.89446 10.2233
H 5.73934 7.70576 0.36884
H 5.55794 6.33884 9.52086
C 5.06482 8.97352 8.15748
H 5.34011 9.78634 7.45054
H 4.36719 8.34096 7.60122
H 4.4876 9.42773 8.99208
C 1.3875 4.16707 0.91081
C 1.6812 3.0414 1.95042
H 0.94049 2.21503 1.8781
H 2.68216 2.58743 1.77723
H 1.68684 3.43658 2.98992
C 2.52844 5.19433 1.13539
H 2.48122 5.58143 2.17662
H 3.52093 4.71354 0.99446
H 2.51926 6.08647 0.50274
C 1.23034 3.44232 9.81499
H 0.4583 2.64314 9.7765
H 1.04871 4.05223 8.92546
H 2.2243 2.96394 9.67624
204
Atoms. Timestep: 966
Ni 2.9549 9.3788 9.26116
Ni 6.64784 3.2653 4.17996
O 0.396371 4.23989 4.00521
O 4.24552 8.08028 9.44911
O 6.78643 1.72668 5.19754
O 1.68331 10.6127 9.44865
O 6.7009 4.22769 5.7167
O 2.80263 8.30202 0.45398
O 11.6552 2.21863 5.10585
O 3.64486 10.6588 0.373786
N 3.79762 10.6146 7.73634
N 12.397 1.73999 2.72311
N 2.01739 8.01535 7.8046
N 6.31023 4.96156 3.16026
C 4.65789 11.0806 5.4664
C 1.00434 0.979027 0.760087
H 4.69664 10.7661 4.42999
H 7.96517 2.84786 9.71979
C 5.23476 12.3169 5.85142
C 1.55654 12.2847 1.21855
C 4.92821 0.177455 7.13334
C 1.12605 12.0523 2.54533
H 11.7966 0.192401 6.10968
H 1.42427 11.128 3.01732
C 1.05207 7.43245 5.50536
C 5.63901 5.74309 0.964104
H 0.958902 7.7648 4.48635
H 9.56016 4.74457 9.30688
C 1.97466 8.1906 6.41529
C 6.62058 5.12963 1.8606
H 2.87661 8.40131 5.96156
C 3.71592 10.4433 6.36509
C 12.3736 1.60004 1.39542
H 2.7669 10.3269 5.93995
C 4.68586 11.6433 8.09086
C 0.695226 0.74021 3.3594
C 1.30064 6.88302 8.18541
C 5.29497 5.80526 3.60902
C 1.00578 5.79173 7.17704
C 4.88178 6.95602 2.7633
H 6.13931 6.36718 6.50769
H 4.52135 7.88101 3.19211
C 0.576665 6.12868 5.87198
C 4.76597 6.73172 1.39299
C 6.02866 0.667331 4.85851
C 2.42873 11.2475 0.213221
C 12.288 5.07657 4.85602
C 3.96386 7.64538 0.307593
Ni 9.23875 9.81674 9.05925
Ni 11.4407 3.22476 3.77238
O 8.33911 3.86304 4.58169
O 9.40088 8.07475 8.6305
O 9.93399 2.25547 3.77523
O 9.29475 11.3946 10.0483
O 10.9867 4.61242 4.9443
O 9.57033 8.85484 0.330681
O 6.78728 1.72549 5.19937
O 9.29074 11.3884 10.0325
N 9.67329 10.8307 7.36149
N 7.09377 2.14723 2.51778
N 8.82563 8.10653 7.67518
N 10.798 4.36468 2.25849
C 9.27042 11.8314 5.14467
C 8.02981 2.22063 0.304699
H 9.25081 11.5693 4.10173
H 1.6303 1.61019 0.243566
C 9.9548 0.456971 5.58784
C 8.84719 1.09968 0.509123
C 10.8256 0.174637 6.50025
C 8.86546 0.629484 1.79705
H 5.1952 1.13657 7.42056
H 9.5803 12.3911 2.08069
C 9.28433 6.82871 5.61607
C 9.93365 5.00516 0.0557984
H 9.89657 6.71947 4.76984
H 5.45308 5.36425 0.0165395
C 9.45302 7.9967 6.35737
C 10.503 4.00403 0.966483
H 10.2281 8.67336 6.05152
H 7.54711 4.73732 1.50791
C 9.04 10.7906 6.10314
C 6.88625 2.418 1.17989
H 8.33841 10.0303 5.84971
H 11.4306 1.61812 0.89282
C 10.64 11.777 7.49307
C 7.91626 1.06009 2.72684
H 8.07828 0.715805 3.66994
C 7.4744 7.5699 7.61341
C 10.1081 5.45691 2.67965
H 9.38463 5.3202 3.40779
C 7.09337 6.82979 6.46304
C 9.88139 6.54257 1.87142
H 0.759167 4.80198 7.51616
H 9.44228 7.42349 2.32258
C 8.08808 6.13582 5.75488
C 9.81871 6.38149 0.504567
C 10.4876 1.6331 4.7917
C 8.98286 0.099457 9.66803
C 7.90401 4.61166 5.60005
C 9.60322 7.7488 9.97509
C 5.8982 11.2327 8.81332
C 5.63853 9.95651 9.24535
H 5.76607 9.16504 8.49081
H 5.65963 9.79983 0.0493632
H 5.65927 9.79982 0.0492731
C 6.38984 11.9242 10.0209
H 6.06578 11.7935 0.666719
H 7.36912 11.3354 0.25373
H 6.57127 0.38624 9.6827
C 6.98715 11.0927 7.82308
H 6.63826 10.543 6.92806
H 7.42205 12.0789 7.5478
H 7.68236 10.3992 8.23484
C 1.74682 1.13312 4.43363
C 1.68975 2.34142 5.45091
H 1.93817 3.33024 5.17628
H 2.43289 2.11912 6.21407
H 0.919383 2.43591 6.21485
C 1.77059 -8.01623e-05 5.38496
H 1.22365 0.226381 6.25956
H 2.72999 0.0147605 5.85025
H 1.41929 11.5556 5.02533
C 3.10786 1.09839 3.69041
H 2.95974 1.39958 2.67212
H 3.53441 0.079232 3.60404
H 3.87917 1.73521 4.0716
C 0.110539 7.13251 9.01161
C 0.139954 8.08354 10.1718
H 0.671175 8.85623 9.79116
H 11.9471 8.43425 0.291753
H 0.725096 7.74321 0.851209
C 12.1844 5.85512 9.57985
H 0.516061 5.2322 9.69049
H 12.1206 5.91954 0.347194
H 11.537 5.33223 8.8787
C 11.6821 7.64595 7.95817
H 12.0132 8.06462 7.03505
H 11.0475 6.82141 7.59307
H 11.3381 8.63846 8.17963
C 4.15325 5.19838 4.4279
C 4.40682 4.02562 5.33884
H 3.92863 3.1521 5.63033
H 4.69451 4.33833 6.3617
H 4.9249 3.36792 4.69428
C 3.0542 4.76984 3.50278
H 3.44132 4.86231 2.54759
H 2.84312 3.70549 3.45829
H 2.17882 5.4259 3.53342
C 3.70079 6.31738 5.23316
H 4.48991 6.95659 5.5958
H 3.16228 6.97998 4.54832
H 3.131 5.97017 6.07554
C 11.8857 11.5201 8.26512
C 11.7042 10.9306 9.67927
H 11.0828 10.0845 9.56907
H 11.6698 11.7168 0.132706
H 0.0617582 10.566 0.184792
C -0.0411617 0.373289 8.51382
H 11.7159 0.865124 9.13929
H 0.923995 0.238409 8.89006
H 0.121645 1.12596 7.73907
C 0.258685 10.6737 7.32999
H -0.123902 10.4926 6.29962
H 1.2688 11.0414 7.29339
H 0.456627 9.74574 7.76672
C 5.44601 2.32418 0.537132
C 4.5062 3.25771 1.2098
H 4.03657 3.98424 0.539391
H 3.56503 2.88857 1.50606
H 4.8617 3.41126 2.22353
C 4.62603 1.03587 0.623829
H 4.76914 0.490459 1.57645
H 3.56776 1.15367 0.542177
H 4.3318 0.523139 9.95751
C 5.41193 2.69324 9.33795
H 5.8265 3.63175 9.3641
H 6.19091 2.16953 8.78066
H 4.57844 2.72539 8.688
C 6.97949 6.9952 8.85622
C 7.00517 7.75197 10.1756
H 7.36235 8.75117 10.0444
H 6.37518 7.96469 0.403032
H 7.65933 7.26415 0.768411
C 7.09568 5.55484 8.85718
H 7.86269 5.14747 8.1967
H 7.32604 5.1574 9.81432
H 6.15873 5.28686 8.39686
C 6.98633 8.71768 4.0424
H 7.064 11.0536 2.97941
H 4.25146 6.69133 7.73437
H 5.38661 8.66982 6.38935
C -0.157173 3.1109 9.33083
C 2.33995 2.44309 8.59629
H 10.077 2.33983 9.2512
H 1.66734 3.20986 1.76892
H 0.370055 4.64399 1.77189
C 2.11732 5.90178 1.10707
H 0.143723 6.88932 2.72053
H 4.20278 4.77664 8.42555
H 2.43996 4.81004 9.30129
C 10.569 3.58216 7.23782
H 8.64454 1.90385 7.5798
H 2.72803 4.18034 7.10321
H 2.62125 0.191345 7.97767
204
Atoms. Timestep: 969
Ni 2.9549 9.3788 9.26116
Ni 6.64784 3.2653 4.17996
O 0.396371 4.23989 4.00521
O 4.24552 8.08028 9.44911
O 6.78643 1.72667 5.19753
O 1.68331 10.6127 9.44865
O 6.7009 4.2277 5.7167
O 2.80263 8.30202 0.45398
O 11.6552 2.21863 5.10585
O 3.64486 10.6588 0.373786
N 3.79762 10.6146 7.73634
N 12.397 1.73999 2.72311
N 2.01739 8.01535 7.8046
N 6.31023 4.96156 3.16026
C 4.6579 11.0806 5.4664
C 1.00434 0.979027 0.760087
H 4.69664 10.7661 4.42999
H 7.96517 2.84786 9.71979
C 5.23476 12.3169 5.85142
C 1.55654 12.2847 1.21855
C 4.92821 0.177455 7.13334
C 1.12605 12.0523 2.54533
H 11.7966 0.192401 6.10968
H 1.42427 11.128 3.01732
C 1.05207 7.43245 5.50536
C 5.63901 5.74309 0.964104
H 0.958902 7.7648 4.48635
H 9.56016 4.74457 9.30688
C 1.97466 8.1906 6.41529
C 6.62058 5.12963 1.8606
H 2.87661 8.40131 5.96156
C 3.71592 10.4433 6.36509
C 12.3736 1.60004 1.39542
H 2.7669 10.3269 5.93995
C 4.68586 11.6433 8.09086
C 0.695226 0.74021 3.3594
C 1.30064 6.88302 8.18541
C 5.29497 5.80526 3.60902
C 1.00578 5.79173 7.17704
C 4.88178 6.95602 2.7633
H 6.13931 6.36718 6.50769
H 4.52135 7.88101 3.19211
C 0.576665 6.12868 5.87198
C 4.76597 6.73172 1.39299
C 6.02866 0.667331 4.85851
C 2.42873 11.2475 0.213221
C 12.288 5.07657 4.85602
C 3.96386 7.64538 0.307593
Ni 9.23875 9.81674 9.05925
Ni 11.4407 3.22476 3.77238
O 8.33911 3.86304 4.58169
O 9.40088 8.07475 8.6305
O 9.93399 2.25547 3.77523
O 9.29474 11.3946 10.0483
O 10.9867 4.61242 4.9443
O 9.57033 8.85484 0.330681
O 6.78727 1.72549 5.19937
O 9.29075 11.3884 10.0325
N 9.67329 10.8307 7.36149
N 7.09377 2.14723 2.51778
N 8.82563 8.10653 7.67518
N 10.798 4.36468 2.25849
C 9.27042 11.8314 5.14467
C 8.02981 2.22063 0.304699
H 9.25081 11.5693 4.10173
H 1.6303 1.61019 0.243566
C 9.9548 0.456971 5.58784
C 8.84719 1.09968 0.509123
C 10.8256 0.174637 6.50025
C 8.86546 0.629484 1.79705
H 5.1952 1.13657 7.42056
H 9.5803 12.3911 2.08069
C 9.28433 6.82871 5.61607
C 9.93365 5.00516 0.0557985
H 9.89657 6.71947 4.76984
H 5.45308 5.36425 0.0165389
C 9.45302 7.9967 6.35737
C 10.503 4.00403 0.966483
H 10.2281 8.67336 6.05152
H 7.54711 4.73732 1.50791
C 9.04 10.7906 6.10314
C 6.88625 2.418 1.17989
H 8.33841 10.0303 5.84971
H 11.4306 1.61812 0.89282
C 10.64 11.777 7.49307
C 7.91626 1.06009 2.72684
H 8.07828 0.715805 3.66994
C 7.4744 7.5699 7.61341
C 10.1081 5.45691 2.67965
H 9.38463 5.3202 3.40779
C 7.09337 6.82979 6.46304
C 9.88139 6.54257 1.87142
H 0.759167 4.80198 7.51616
H 9.44228 7.42349 2.32258
C 8.08808 6.13582 5.75488
C 9.81871 6.38149 0.504568
C 10.4876 1.6331 4.7917
C 8.98286 0.0994571 9.66803
C 7.90401 4.61166 5.60005
C 9.60322 7.7488 9.97509
C 5.8982 11.2327 8.81332
C 5.63853 9.95651 9.24535
H 5.76607 9.16504 8.49081
H 5.65963 9.79983 0.0493634
H 5.65927 9.79982 0.0492733
C 6.38984 11.9242 10.0209
H 6.06578 11.7935 0.66672
H 7.36912 11.3354 0.253731
H 6.57127 0.38624 9.6827
C 6.98715 11.0927 7.82308
H 6.63826 10.543 6.92806
H 7.42205 12.0789 7.5478
H 7.68236 10.3992 8.23484
C 1.74682 1.13312 4.43363
C 1.68975 2.34142 5.45091
H 1.93816 3.33024 5.17628
H 2.43289 2.11912 6.21407
H 0.919383 2.43591 6.21485
C 1.77059 12.5233 5.38496
H 1.22364 0.22638 6.25956
H 2.72999 0.01476 5.85025
H 1.41929 11.5556 5.02533
C 3.10786 1.09839 3.69041
H 2.95974 1.39958 2.67212
H 3.53441 0.079232 3.60404
H 3.87917 1.73521 4.0716
C 0.110539 7.13251 9.01161
C 0.139954 8.08354 10.1718
H 0.671175 8.85623 9.79116
H 11.9471 8.43425 0.291754
H 0.725096 7.74321 0.851209
C 12.1844 5.85512 9.57985
H 0.516061 5.23219 9.69049
H 12.1206 5.91954 0.347194
H 11.537 5.33223 8.8787
C 11.6821 7.64595 7.95817
H 12.0132 8.06462 7.03506
H 11.0475 6.82141 7.59307
H 11.3381 8.63846 8.17963
C 4.15325 5.19838 4.4279
C 4.40682 4.02562 5.33884
H 3.92863 3.1521 5.63033
H 4.69451 4.33833 6.3617
H 4.9249 3.36792 4.69428
C 3.0542 4.76984 3.50278
H 3.44132 4.86231 2.54759
H 2.84312 3.70549 3.45829
H 2.17882 5.4259 3.53342
C 3.70079 6.31738 5.23316
H 4.48991 6.95659 5.5958
H 3.16228 6.97998 4.54832
H 3.131 5.97017 6.07554
C 11.8857 11.5201 8.26512
C 11.7042 10.9306 9.67927
H 11.0828 10.0845 9.56907
H 11.6698 11.7168 0.132707
H 0.0617582 10.566 0.184793
C -0.0411616 0.373289 8.51382
H 11.7159 0.865124 9.13929
H 0.923995 0.238409 8.89006
H 0.121645 1.12596 7.73907
C 0.258685 10.6737 7.32999
H -0.123902 10.4926 6.29962
H 1.2688 11.0414 7.29339
H 0.456627 9.74574 7.76672
C 5.44601 2.32418 0.537132
C 4.5062 3.25771 1.2098
H 4.03657 3.98424 0.539391
H 3.56503 2.88857 1.50606
H 4.8617 3.41126 2.22353
C 4.62603 1.03587 0.623829
H 4.76914 0.49046 1.57645
H 3.56776 1.15367 0.542178
H 4.3318 0.523139 9.95751
C 5.41193 2.69324 9.33795
H 5.8265 3.63175 9.3641
H 6.19091 2.16953 8.78066
H 4.57844 2.72539 8.688
C 6.97949 6.9952 8.85622
C 7.00517 7.75197 10.1756
H 7.36235 8.75117 10.0444
H 6.37518 7.96469 0.403031
H 7.65933 7.26415 0.768411
C 7.09568 5.55484 8.85718
H 7.86269 5.14747 8.1967
H 7.32604 5.1574 9.81432
H 6.15873 5.28686 8.39686
C 6.98633 8.71768 4.0424
H 7.064 11.0536 2.97941
H 4.25146 6.69133 7.73437
H 5.38661 8.66982 6.38935
C -0.157173 3.1109 9.33083
C 2.33995 2.44309 8.59629
H 10.077 2.33983 9.2512
H 1.66734 3.20986 1.76892
H 0.370055 4.64399 1.77189
C 2.11732 5.90178 1.10707
H 0.143722 6.88932 2.72053
H 4.20278 4.77664 8.42555
H 2.43996 4.81004 9.30129
C 10.569 3.58216 7.23782
H 8.64454 1.90385 7.5798
H 2.72803 4.18034 7.10321
H 2.62125 0.191346 7.97767
204
Atoms. Timestep: 970
Ni 2.9549 9.3788 9.26116
Ni 6.64784 3.2653 4.17996
O 0.396371 4.23989 4.00521
O 4.24552 8.08028 9.44911
O 6.78643 1.72667 5.19753
O 1.68331 10.6127 9.44865
O 6.7009 4.2277 5.7167
O 2.80263 8.30202 0.45398
O 11.6552 2.21863 5.10585
O 3.64486 10.6588 0.373786
N 3.79762 10.6146 7.73634
N 12.397 1.73999 2.72311
N 2.01739 8.01535 7.8046
N 6.31023 4.96156 3.16026
C 4.6579 11.0806 5.4664
C 1.00434 0.979027 0.760087
H 4.69664 10.7661 4.42999
H 7.96517 2.84786 9.71979
C 5.23476 12.3169 5.85142
C 1.55654 12.2847 1.21855
C 4.92821 0.177455 7.13334
C 1.12605 12.0523 2.54533
H 11.7966 0.192401 6.10968
H 1.42427 11.128 3.01732
C 1.05207 7.43245 5.50536
C 5.63901 5.74309 0.964104
H 0.958902 7.7648 4.48635
H 9.56016 4.74457 9.30688
C 1.97466 8.1906 6.41529
C 6.62058 5.12963 1.8606
H 2.87661 8.40131 5.96156
C 3.71592 10.4433 6.36509
C 12.3736 1.60004 1.39542
H 2.7669 10.3269 5.93995
C 4.68586 11.6433 8.09086
C 0.695226 0.74021 3.3594
C 1.30064 6.88302 8.18541
C 5.29497 5.80526 3.60902
C 1.00578 5.79173 7.17704
C 4.88178 6.95602 2.7633
H 6.13931 6.36718 6.50769
H 4.52135 7.88101 3.19211
C 0.576665 6.12868 5.87198
C 4.76597 6.73172 1.39299
C 6.02866 0.667331 4.85851
C 2.42873 11.2475 0.213221
C 12.288 5.07657 4.85602
C 3.96386 7.64538 0.307593
Ni 9.23875 9.81674 9.05925
Ni 11.4407 3.22476 3.77238
O 8.33911 3.86304 4.58169
O 9.40088 8.07475 8.6305
O 9.93399 2.25547 3.77523
O 9.29474 11.3946 10.0483
O 10.9867 4.61242 4.9443
O 9.57033 8.85484 0.330681
O 6.78727 1.72549 5.19937
O 9.29075 11.3884 10.0325
N 9.67329 10.8307 7.36149
N 7.09377 2.14723 2.51778
N 8.82563 8.10653 7.67518
N 10.798 4.36468 2.25849
C 9.27042 11.8314 5.14467
C 8.02981 2.22063 0.304699
H 9.25081 11.5693 4.10173
H 1.6303 1.61019 0.243566
C 9.9548 0.456971 5.58784
C 8.84719 1.09968 0.509123
C 10.8256 0.174637 6.50025
C 8.86546 0.629484 1.79705
H 5.1952 1.13657 7.42056
H 9.5803 12.3911 2.08069
C 9.28433 6.82871 5.61607
C 9.93365 5.00516 0.0557985
H 9.89657 6.71947 4.76984
H 5.45308 5.36425 0.0165389
C 9.45302 7.9967 6.35737
C 10.503 4.00403 0.966483
H 10.2281 8.67336 6.05152
H 7.54711 4.73732 1.50791
C 9.04 10.7906 6.10314
C 6.88625 2.418 1.17989
H 8.33841 10.0303 5.84971
H 11.4306 1.61812 0.89282
C 10.64 11.777 7.49307
C 7.91626 1.06009 2.72684
H 8.07828 0.715805 3.66994
C 7.4744 7.5699 7.61341
C 10.1081 5.45691 2.67965
H 9.38463 5.3202 3.40779
C 7.09337 6.82979 6.46304
C 9.88139 6.54257 1.87142
H 0.759167 4.80198 7.51616
H 9.44228 7.42349 2.32258
C 8.08808 6.13582 5.75488
C 9.81871 6.38149 0.504568
C 10.4876 1.6331 4.7917
C 8.98286 0.0994571 9.66803
C 7.90401 4.61166 5.60005
C 9.60322 7.7488 9.97509
C 5.8982 11.2327 8.81332
C 5.63853 9.95651 9.24535
H 5.76607 9.16504 8.49081
H 5.65963 9.79983 0.0493634
H 5.65927 9.79982 0.0492733
C 6.38984 11.9242 10.0209
H 6.06578 11.7935 0.66672
H 7.36912 11.3354 0.253731
H 6.57127 0.38624 9.6827
C 6.98715 11.0927 7.82308
H 6.63826 10.543 6.92806
H 7.42205 12.0789 7.5478
H 7.68236 10.3992 8.23484
C 1.74682 1.13312 4.43363
C 1.68975 2.34142 5.45091
H 1.93816 3.33024 5.17628
H 2.43289 2.11912 6.21407
H 0.919383 2.43591 6.21485
C 1.77059 12.5233 5.38496
H 1.22364 0.22638 6.25956
H 2.72999 0.01476 5.85025
H 1.41929 11.5556 5.02533
C 3.10786 1.09839 3.69041
H 2.95974 1.39958 2.67212
H 3.53441 0.079232 3.60404
H 3.87917 1.73521 4.0716
C 0.110539 7.13251 9.01161
C 0.139954 8.08354 10.1718
H 0.671175 8.85623 9.79116
H 11.9471 8.43425 0.291754
H 0.725096 7.74321 0.851209
C 12.1844 5.85512 9.57985
H 0.516061 5.23219 9.69049
H 12.1206 5.91954 0.347194
H 11.537 5.33223 8.8787
C 11.6821 7.64595 7.95817
H 12.0132 8.06462 7.03506
H 11.0475 6.82141 7.59307
H 11.3381 8.63846 8.17963
C 4.15325 5.19838 4.4279
C 4.40682 4.02562 5.33884
H 3.92863 3.1521 5.63033
H 4.69451 4.33833 6.3617
H 4.9249 3.36792 4.69428
C 3.0542 4.76984 3.50278
H 3.44132 4.86231 2.54759
H 2.84312 3.70549 3.45829
H 2.17882 5.4259 3.53342
C 3.70079 6.31738 5.23316
H 4.48991 6.95659 5.5958
H 3.16228 6.97998 4.54832
H 3.131 5.97017 6.07554
C 11.8857 11.5201 8.26512
C 11.7042 10.9306 9.67927
H 11.0828 10.0845 9.56907
H 11.6698 11.7168 0.132707
H 0.0617582 10.566 0.184793
C -0.0411616 0.373289 8.51382
H 11.7159 0.865124 9.13929
H 0.923995 0.238409 8.89006
H 0.121645 1.12596 7.73907
C 0.258685 10.6737 7.32999
H -0.123902 10.4926 6.29962
H 1.2688 11.0414 7.29339
H 0.456627 9.74574 7.76672
C 5.44601 2.32418 0.537132
C 4.5062 3.25771 1.2098
H 4.03657 3.98424 0.539391
H 3.56503 2.88857 1.50606
H 4.8617 3.41126 2.22353
C 4.62603 1.03587 0.623829
H 4.76914 0.49046 1.57645
H 3.56776 1.15367 0.542178
H 4.3318 0.523139 9.95751
C 5.41193 2.69324 9.33795
H 5.8265 3.63175 9.3641
H 6.19091 2.16953 8.78066
H 4.57844 2.72539 8.688
C 6.97949 6.9952 8.85622
C 7.00517 7.75197 10.1756
H 7.36235 8.75117 10.0444
H 6.37518 7.96469 0.403031
H 7.65933 7.26415 0.768411
C 7.09568 5.55484 8.85718
H 7.86269 5.14747 8.1967
H 7.32604 5.1574 9.81432
H 6.15873 5.28686 8.39686
C 6.98633 8.71768 4.0424
H 7.064 11.0536 2.97941
H 4.25146 6.69133 7.73437
H 5.38661 8.66982 6.38935
C -0.157173 3.1109 9.33083
C 2.33995 2.44309 8.59629
H 10.077 2.33983 9.2512
H 1.66734 3.20986 1.76892
H 0.370055 4.64399 1.77189
C 2.11732 5.90178 1.10707
H 0.143722 6.88932 2.72053
H 4.20278 4.77664 8.42555
H 2.43996 4.81004 9.30129
C 10.569 3.58216 7.23782
H 8.64454 1.90385 7.5798
H 2.72803 4.18034 7.10321
H 2.62125 0.191346 7.97767
