180

Ni	2.9944	9.3821	8.4230
Ni	5.6863	3.4021	3.6911
O	1.7938	4.0138	3.6127
O	4.3844	8.1593	8.3985
O	4.1744	2.3352	3.6984
O	1.6631	10.5615	8.7212
O	5.0482	4.8078	4.7097
O	2.7456	8.3717	9.7986
O	0.8966	1.7308	4.8480
O	3.6017	10.6197	9.5435
N	3.5532	10.4975	6.9610
N	0.9715	1.6933	2.0733
N	2.0521	8.0819	7.2220
N	5.2862	4.4391	2.0325
C	2.9608	0.0998	5.8951
C	1.7206	1.1996	10.1233
H	2.3770	0.9108	6.2793
H	6.4786	0.8902	9.6653
C	4.2706	0.3823	5.4980
C	2.3652	12.4351	0.2342
C	5.2334	11.9948	6.0322
C	2.3603	12.2036	1.5989
H	0.3621	0.3801	7.5623
H	2.8147	11.3037	1.9949
C	2.1322	6.9938	5.0028
C	5.6330	6.5688	0.9787
H	2.2526	7.1035	3.9345
H	11.1298	5.2516	9.5369
C	2.2633	8.1408	5.8458
C	6.1735	5.3437	1.4823
H	2.5367	9.0524	5.3676
H	0.7008	4.4285	0.8818
C	2.6197	11.3015	6.3239
C	0.9654	1.8875	0.6637
H	1.5826	11.0051	6.3171
H	5.2484	2.0073	1.0568
C	4.8303	10.9809	7.0005
C	1.7881	0.6302	2.4935
H	2.0322	0.4903	3.5106
C	1.6613	6.8311	7.7317
C	4.0642	4.3545	1.3982
H	3.3965	3.5376	1.6204
C	1.8113	5.6508	6.9305
C	3.7570	5.2473	0.3067
H	5.6012	6.2152	7.2651
H	2.7536	4.9855	9.8836
C	1.8416	5.7388	5.5378
C	4.4898	6.4632	0.1547
C	4.6625	1.7932	4.8598
C	2.4984	11.2961	9.4887
C	1.2210	4.6211	4.6775
C	3.7655	7.6115	9.4963
Ni	9.1832	9.5670	9.0082
Ni	0.3137	2.9531	3.6230
O	7.1093	4.4511	4.0027
O	10.4122	8.2817	9.2241
O	11.4007	1.8706	3.9613
O	8.0180	10.9482	9.0797
O	0.0548	4.0355	4.9568
O	8.7483	8.3790	0.0364
O	5.7910	2.4324	5.1485
O	9.8278	10.6946	0.1598
N	10.1875	10.7178	7.7093
N	6.6694	1.9625	2.6410
N	8.2988	8.3919	7.4859
N	11.8017	4.3163	2.4524
C	10.4438	11.8032	5.5052
C	7.0058	0.8956	0.4235
H	10.1664	11.7467	4.4735
H	1.8572	1.5018	9.0923
C	11.6002	0.0039	5.8482
C	8.0971	0.0922	0.8426
C	11.9950	12.3712	7.2172
C	8.4916	0.3037	2.1821
H	6.2613	12.0749	5.7652
H	9.3036	12.2515	2.5586
C	7.9021	7.4661	5.1996
C	11.3257	5.4302	0.3176
H	8.1128	7.5530	4.1483
H	6.2504	7.4518	0.9552
C	8.7667	8.1690	6.1714
C	12.2146	4.6902	1.2078
C	9.6601	11.0737	6.4887
C	6.2185	1.6596	1.3679
H	8.6632	10.7565	6.2273
C	11.2528	11.4797	8.1573
C	7.7930	1.2256	3.0938
C	7.2175	7.5792	7.8618
C	10.8023	5.1663	3.0088
H	6.9184	7.5301	8.8859
C	6.5039	6.7067	6.9438
C	10.2461	6.3019	2.2153
H	1.6375	4.6797	7.3807
H	9.6051	7.0229	2.6882
C	6.9096	6.5300	5.6265
C	10.4210	6.3921	0.8169
C	12.1549	1.1781	4.8581
C	8.5742	11.5062	10.1447
C	6.3344	5.3140	4.7051
C	9.6654	7.6494	10.1640
C	5.7637	10.7059	8.2043
C	5.8604	10.0014	9.7230
H	6.0537	11.7481	8.4112
H	6.5407	10.1832	7.6208
C	5.8217	10.7010	0.8121
H	6.7427	9.4484	9.8331
H	5.3974	9.1172	9.9300
H	6.7069	10.6646	1.4733
H	5.0685	10.1309	1.4054
H	5.3586	11.6900	0.7037
C	11.9815	2.1943	10.1611
C	10.8963	1.8886	0.5755
H	12.0672	3.1497	9.6227
H	11.9465	1.5799	9.2477
C	9.8367	2.8773	0.1933
H	10.5734	0.8851	0.2528
H	10.9815	1.8867	1.6682
H	8.9070	2.3636	0.0227
H	9.6917	3.5729	1.0319
H	9.8377	3.4142	9.5336
C	0.6741	6.6795	8.8911
C	0.5227	7.5937	10.1301
H	0.7821	5.6492	9.2594
H	12.2081	6.7447	8.3756
C	1.3639	7.2596	1.2433
H	0.6283	8.6039	9.7848
H	12.2845	7.6582	0.1503
H	2.0022	8.0784	1.6359
H	1.8838	6.3135	1.2774
H	0.5798	7.1231	2.0031
C	7.2148	4.7584	0.5915
C	6.3114	4.3268	9.5374
H	7.6229	3.8947	1.1227
H	8.0058	5.5012	0.3870
C	7.2236	3.8485	8.4609
H	5.8142	5.1802	9.0843
H	5.5432	3.5481	9.7037
H	6.7128	3.9286	7.4800
H	7.3802	2.7784	8.6398
H	8.1544	4.4507	8.4253
C	11.8493	11.2028	9.5443
C	12.2475	10.5176	0.7026
H	-0.0153	12.0376	9.6409
H	12.1213	10.2534	9.0882
C	11.8398	11.2639	1.9673
H	0.8042	10.2542	0.8524
H	11.7147	9.5624	0.7716
H	0.0765	11.0927	2.7732
H	10.8980	10.8463	2.3632
H	11.7433	12.3319	1.8050
C	8.2412	1.0845	4.5797
C	8.0163	1.7828	5.9583
H	8.0891	0.0133	4.7818
H	9.2988	1.2662	4.4543
C	9.0866	1.6145	7.0392
H	7.8747	2.8437	5.7803
H	7.1456	1.3605	6.4878
H	10.0669	1.5602	6.6370
H	9.2065	2.5222	7.6303
H	8.8735	0.7719	7.7275
C	10.2576	8.0421	5.9027
C	10.9166	8.9984	4.9069
H	10.8413	8.0102	6.8408
H	10.3297	7.0868	5.3933
C	11.8914	8.3781	3.9149
H	10.1284	9.5170	4.3228
H	11.5691	9.6578	5.5076
H	0.3448	8.9376	3.9077
H	12.1116	7.3180	4.1419
H	11.4799	8.4752	2.8942
C	9.8850	4.6790	4.1292
C	10.1040	4.3414	5.6372
H	9.3940	3.7840	3.6944
H	9.1230	5.4544	4.1967
C	10.9216	5.1211	6.6738
H	10.4516	3.3147	5.6592
H	9.1045	4.3881	6.0917
H	11.4443	4.4008	7.3398
H	10.2550	5.7225	7.3293
H	11.6901	5.7713	6.2314
