148

C	3.4855	12.1483	5.3630
C	0.4749	0.3896	0.2292
C	4.7607	0.1474	5.6148
C	1.7433	12.3699	0.4741
C	5.5035	12.1502	6.6821
C	2.4985	0.3551	1.5400
C	2.4836	6.6337	5.4082
C	5.7280	5.9036	0.2867
C	2.9276	7.6810	6.2307
C	6.1883	4.8676	1.1160
C	2.9826	11.1359	6.1975
C	-0.0104	1.4055	1.0711
C	4.9364	11.1381	7.4751
C	1.9482	1.3719	2.3406
C	0.9457	7.6265	7.4730
C	4.2108	4.9046	2.3569
C	0.4386	6.5758	6.6918
C	3.6876	5.9450	1.5694
C	1.2275	6.0647	5.6521
C	4.4634	6.4578	0.5203
C	5.3126	1.2438	4.7942
C	2.0502	11.2676	9.9216
C	0.7355	4.9402	4.8359
C	3.7318	7.5663	9.9569
C	9.7383	12.1483	5.3630
C	6.7277	0.3896	0.2292
C	11.0136	0.1474	5.6148
C	7.9961	12.3699	0.4741
C	11.7563	12.1502	6.6821
C	8.7513	0.3551	1.5400
C	8.7365	6.6337	5.4082
C	11.9809	5.9036	0.2867
C	9.1804	7.6810	6.2307
C	12.4411	4.8676	1.1160
C	9.2354	11.1359	6.1975
C	6.2425	1.4055	1.0711
C	11.1892	11.1381	7.4751
C	8.2010	1.3719	2.3406
C	7.1985	7.6265	7.4730
C	10.4636	4.9046	2.3569
C	6.6914	6.5758	6.6918
C	9.9404	5.9450	1.5694
C	7.4803	6.0647	5.6521
C	10.7162	6.4578	0.5203
C	11.5654	1.2438	4.7942
C	8.3030	11.2676	9.9216
C	6.9883	4.9402	4.8359
C	9.9846	7.5663	9.9569
C	6.6633	0.1639	7.2971
C	3.4030	11.8913	2.1223
C	11.5513	6.1826	6.7516
C	2.2946	6.3411	1.6355
C	8.7423	0.1409	4.4854
C	9.7357	11.9147	2.0614
C	5.7377	5.6244	7.2485
C	8.9763	6.8944	2.1095
H	2.8645	12.5181	4.5527
H	5.8697	0.0337	9.6938
H	0.2477	12.5084	6.9199
H	3.1330	6.2729	4.6161
H	-0.1083	6.2667	9.7662
H	3.8999	8.1466	6.0889
H	0.9159	4.4189	0.9763
H	1.9939	10.7091	6.0470
H	5.2609	1.8501	0.9235
H	5.4856	10.7097	8.3094
H	2.5089	1.7921	3.1727
H	0.3633	8.0519	8.2873
H	3.6361	4.4774	3.1753
H	12.1225	0.0337	9.6938
H	9.3858	6.2729	4.6161
H	6.1445	6.2667	9.7662
H	10.1528	8.1466	6.0889
H	7.1687	4.4189	0.9763
H	8.2467	10.7091	6.0470
H	11.5137	1.8501	0.9235
H	11.7384	10.7097	8.3094
H	8.7617	1.7921	3.1727
H	6.6161	8.0519	8.2873
H	9.8889	4.4774	3.1753
H	6.8759	1.7093	5.9207
H	7.3506	12.0182	7.8045
H	6.0860	14.6237	7.5936
H	7.6991	14.2860	8.0019
H	4.0373	11.2878	0.4377
H	3.0215	10.8629	2.1670
H	4.9003	0.5094	2.8015
H	4.9999	-1.2019	3.2134
H	11.6107	4.6682	5.8236
H	10.9786	6.3512	5.8419
H	11.2213	5.4672	8.6656
H	9.8280	5.5919	7.6019
H	2.2782	7.6866	0.5945
H	1.7155	6.1408	0.7334
H	1.9462	7.0649	3.5477
H	0.5647	6.9307	2.4722
H	9.3334	12.9051	3.6050
H	8.4114	1.1194	4.8336
H	7.9085	10.8578	3.9402
H	7.0263	12.2153	3.4846
H	10.3102	11.3218	0.3933
H	9.3495	10.8904	2.1502
H	11.3968	0.4466	2.5843
H	11.4603	-1.2758	2.9038
H	5.2283	4.9501	5.6121
H	6.0764	4.5808	7.3116
H	4.2821	6.8339	7.9626
H	4.0856	5.1168	8.2977
H	8.4346	7.5337	0.4202
H	9.2863	7.9480	2.1265
H	7.5501	5.6732	2.8591
H	7.3127	7.3964	3.1446
N	3.6968	10.6606	7.2416
N	0.7126	1.8642	2.1170
N	2.1722	8.1441	7.2520
N	5.4402	4.3948	2.1375
N	9.9496	10.6606	7.2416
N	6.9654	1.8642	2.1170
N	8.4250	8.1441	7.2520
N	11.6931	4.3948	2.1375
N	6.9161	14.0443	7.3880
N	4.6044	-0.4628	2.6300
N	10.8413	5.6486	7.7316
N	1.5777	6.8844	2.6080
N	7.6297	11.8078	4.1995
N	10.9940	-0.4855	2.4568
N	4.5572	5.8577	7.7796
N	7.8064	6.6506	2.6546
Ni	2.8986	9.4112	8.5927
Ni	6.1753	3.1058	3.4848
Ni	9.1514	9.4112	8.5927
Ni	12.4281	3.1058	3.4848
O	1.4483	4.3543	3.9337
O	4.4416	8.1525	9.0546
O	4.6367	1.8473	3.8752
O	1.3650	10.6744	9.0030
O	5.8061	4.4603	4.9624
O	2.5424	8.0327	10.0675
O	0.2512	1.6926	4.9427
O	3.2372	10.8047	10.0626
O	7.7011	4.3543	3.9337
O	10.6944	8.1525	9.0546
O	10.8895	1.8473	3.8752
O	7.6178	10.6744	9.0030
O	12.0589	4.4603	4.9624
O	8.7953	8.0327	10.0675
O	6.5040	1.6926	4.9427
O	9.4900	10.8047	10.0626
