148

C	3.3859	12.3801	5.4993
C	0.1255	0.5887	-0.1607
C	4.5364	0.5107	5.9577
C	1.3004	12.4121	0.0863
C	5.3505	12.3665	6.9233
C	2.0318	0.1147	1.2789
C	2.7358	6.4515	5.2365
C	5.8992	6.1346	0.3147
C	2.9336	7.6568	5.9009
C	6.0693	4.8599	0.8437
C	3.0581	11.1228	5.9802
C	-0.3131	1.5030	0.7924
C	5.0138	11.0381	7.2572
C	1.5516	1.0986	2.1560
C	1.2374	7.1677	7.4358
C	4.0230	4.9811	1.9691
C	0.9744	5.9289	6.8093
C	3.7726	6.2832	1.4811
C	1.8248	5.5315	5.7423
C	4.7810	6.8824	0.6739
C	4.9896	1.6998	5.2454
C	1.7571	11.6289	9.3162
C	1.6189	4.2059	5.1350
C	4.4132	8.2692	10.4859
C	9.5941	12.4590	5.8117
C	6.5622	-0.2108	0.2223
C	10.9594	0.3055	5.8625
C	7.9043	11.9648	0.4054
C	11.8621	11.9437	6.4788
C	8.6301	0.1155	1.4328
C	8.6854	5.9567	5.5973
C	12.0279	5.8238	0.3897
C	9.1634	7.0608	6.2985
C	12.3060	4.6594	1.0902
C	9.2307	11.2162	6.3468
C	6.0464	0.9059	0.8769
C	11.4019	10.7601	7.0546
C	8.0572	1.2790	1.9979
C	7.1517	7.2969	7.4591
C	10.4274	4.9279	2.4531
C	6.5974	6.1733	6.8012
C	10.1011	6.1442	1.8244
C	7.3525	5.5664	5.7494
C	10.8882	6.5684	0.7144
C	11.5020	1.4427	5.1179
C	8.3426	11.0325	9.7868
C	6.6853	4.7706	4.7225
C	10.1801	7.5889	10.0864
C	6.4742	0.3290	7.6402
C	3.2094	11.8886	1.5294
C	12.3142	5.1585	7.1000
C	2.5343	6.9580	1.7020
C	8.5175	0.7635	5.2092
C	9.7877	12.0323	1.9973
C	5.3667	5.5701	7.2015
C	9.0516	6.9682	2.3521
H	2.7030	12.8701	4.8115
H	5.7100	-0.7658	9.7981
H	0.4194	12.1739	6.5127
H	3.3107	6.2340	4.3388
H	-0.0303	6.1319	9.8701
H	3.6928	8.3756	5.5912
H	0.6671	4.0427	0.8611
H	2.1315	10.6175	5.7058
H	5.0202	1.2342	0.7172
H	5.6407	10.4630	7.9411
H	2.0842	1.3724	3.0671
H	0.6494	7.5187	8.2893
H	3.3197	4.4789	2.6348
H	11.8519	0.4520	9.1824
H	9.3380	5.4712	4.8793
H	6.4326	6.5514	9.9297
H	10.1690	7.4499	6.1367
H	6.9707	4.2750	0.6471
H	8.1927	10.8809	6.2779
H	11.2712	2.0732	0.6706
H	12.0634	10.0820	7.5945
H	8.5861	1.8907	2.7292
H	6.5961	7.8463	8.2218
H	9.8396	4.5320	3.2828
H	6.1786	2.2629	6.6522
H	7.3064	12.1789	7.8410
H	5.7015	2.0217	8.4943
H	7.3616	1.7617	8.7567
H	2.5765	13.2914	-1.6016
H	3.4599	11.0531	0.8815
H	4.0398	0.4032	3.1467
H	4.8782	11.5113	2.5610
H	13.8059	2.3885	5.4985
H	12.2167	4.1435	6.7114
H	11.2359	6.5950	8.1331
H	10.4549	5.0479	7.8880
H	4.4908	8.7886	2.0082
H	2.3497	7.9134	1.2027
H	1.5336	5.6031	2.9580
H	0.6636	7.0204	2.4500
H	8.9800	1.5635	4.5858
H	8.0001	1.3614	5.9794
H	7.9135	11.7978	3.8738
H	6.7685	13.0260	4.0948
H	10.3466	11.7315	-0.0713
H	10.0193	10.9933	1.7576
H	10.4402	1.0465	3.2005
H	11.3637	12.1012	3.2812
H	5.0237	5.5958	5.1754
H	5.1561	4.5531	6.8632
H	4.5401	7.0785	8.3653
H	3.6252	5.5892	8.2141
H	8.5996	7.4831	0.5238
H	9.1668	8.0575	2.3871
H	7.7917	5.4503	2.9404
H	7.3058	7.0708	3.3873
N	3.8614	10.4731	6.8610
N	0.4009	1.7486	1.9209
N	2.2356	7.9817	7.0252
N	5.1631	4.3123	1.6958
N	10.0954	10.4018	6.9846
N	6.7863	1.6605	1.7411
N	8.3997	7.7412	7.1949
N	11.5221	4.2192	2.1101
N	6.5656	1.5929	8.1392
N	4.0474	12.0985	2.5216
N	11.2842	5.6271	7.7684
N	1.5421	6.5062	2.4408
N	7.5383	12.5031	4.5109
N	10.5710	12.6023	2.8877
N	4.4666	6.1152	7.9884
N	7.9563	6.4691	2.8848
Ni	2.9718	9.3650	8.1713
Ni	5.8749	2.9663	2.9139
Ni	9.2854	9.1524	8.2436
Ni	12.2846	2.9113	3.3315
O	1.2774	4.1237	3.9114
O	4.4469	8.5864	9.2662
O	4.6429	1.8914	4.0294
O	1.7761	10.3774	9.2797
O	5.3878	4.9860	4.4962
O	4.2444	9.2261	11.4057
O	0.2477	1.4622	4.7708
O	2.4815	12.3465	8.4609
O	7.2715	3.9928	3.9082
O	10.8047	8.0723	9.0996
O	10.7822	2.3816	4.5695
O	7.7570	10.2515	8.9938
O	14.2338	3.1910	5.9504
O	8.9079	8.0353	10.1827
O	5.8568	2.5437	5.7588
O	9.6908	10.9851	9.7305
