496
#
Ni    5.2954    2.9518    0.3255
O    0.3212    10.3344    5.4536
O    1.3821    10.2156    3.5771
C    2.2224    0.2376    6.6365
C    3.2194    0.4514    4.4515
C    4.0373    1.4254    4.9969
H    4.7802    2.0194    4.3537
H    4.2273    0.4751    2.6750
N    4.0379    1.7818    6.2947
N    3.4099    0.0832    3.1849
C    2.2324    11.7361    5.2962
H    2.8682    11.1896    2.8346
C    1.2765    10.6907    4.7685
C    3.1536    1.1760    0.0227
H    3.1859    1.4492    1.0716
H    1.4866    11.6410    0.2560
O    5.9065    4.0613    5.9706
O    6.9700    4.4414    0.7383
C    7.3159    6.1994    4.6175
C    8.7270    6.3681    6.5642
C    9.5113    7.3101    5.8429
H    10.4172    7.7187    6.2862
H    9.7755    6.6948    1.1921
N    9.1614    7.7532    4.6359
N    9.0405    6.1222    0.7439
C    7.6160    5.7587    5.9061
H    8.4196    5.4808    1.2595
C    6.8115    4.7419    6.5847
C    8.0844    7.2044    4.0147
H    7.8439    7.6023    3.0325
H    6.4503    5.8217    4.0799
Ni    10.6061    8.9268    3.8714
O    5.6285    1.5442    1.9077
O    6.6894    1.6630    0.0312
C    7.5297    11.6410    3.0906
C    8.5267    11.4272    0.9056
C    9.3445    10.4532    1.4510
H    10.0875    9.8592    0.8078
H    9.5380    11.4035    6.2209
N    9.3452    10.0968    2.7488
N    8.7207    11.7954    6.7308
C    7.5396    0.1425    1.7503
H    8.1790    0.6890    6.3805
C    6.5838    1.1879    1.2226
C    8.4643    10.7026    3.5686
H    8.4967    10.4294    4.6175
H    6.7974    0.2376    3.8019
O    0.5958    7.8173    2.4247
O    1.6627    7.4372    4.2842
C    2.0052    5.6792    1.0716
C    3.4162    5.5105    3.0183
C    4.2005    4.5685    2.2970
H    5.1065    4.1599    2.7403
H    4.4682    5.1838    4.7380
N    3.8506    4.1254    1.0900
N    3.7333    5.7564    4.2898
C    2.3053    6.1199    2.3602
H    3.1124    6.3978    4.8054
C    1.5007    7.1367    3.0388
C    2.7737    4.6742    0.4688
H    2.5367    4.2763    6.5784
H    1.1396    6.0569    0.5340
Ni    5.2988    2.9518    7.4173
O    0.3247    10.3344    12.5454
O    1.3856    10.2156    10.6689
C    2.2259    0.2376    13.7283
C    3.2229    0.4514    11.5433
C    4.0407    1.4254    12.0887
H    4.7837    2.0194    11.4455
H    4.2307    0.4751    9.7668
N    4.0414    1.7818    13.3865
N    3.4134    0.0832    10.2767
C    2.2358    11.7361    12.3880
H    2.8717    11.1896    9.9264
C    1.2800    10.6907    11.8603
C    3.1570    1.1760    7.1145
H    3.1894    1.4492    8.1634
H    1.4901    11.6410    7.3478
O    5.9100    4.0613    13.0624
O    6.9735    4.4414    7.8301
C    7.3194    6.1994    11.7093
C    8.7304    6.3681    13.6560
C    9.5147    7.3101    12.9347
H    10.4207    7.7187    13.3780
H    9.7790    6.6948    8.2839
N    9.1648    7.7532    11.7277
N    9.0440    6.1222    7.8357
C    7.6195    5.7587    12.9978
H    8.4231    5.4808    8.3513
C    6.8149    4.7419    13.6765
C    8.0878    7.2044    11.1065
H    7.8474    7.6023    10.1243
H    6.4538    5.8217    11.1717
Ni    10.6096    8.9268    10.9632
O    5.6319    1.5442    8.9995
O    6.6928    1.6630    7.1230
C    7.5331    11.6410    10.1824
C    8.5302    11.4272    7.9974
C    9.3480    10.4532    8.5428
H    10.0910    9.8592    7.8996
H    9.5415    11.4035    13.3127
N    9.3486    10.0968    9.8406
N    8.7241    11.7954    13.8226
C    7.5431    0.1425    8.8421
H    8.1824    0.6890    13.4723
C    6.5872    1.1879    8.3144
C    8.4678    10.7026    10.6604
H    8.5001    10.4294    11.7093
H    6.8008    0.2376    10.8937
O    0.5993    7.8173    9.5165
O    1.6662    7.4372    11.3760
C    2.0087    5.6792    8.1634
C    3.4197    5.5105    10.1101
C    4.2040    4.5685    9.3888
H    5.1099    4.1599    9.8321
H    4.4717    5.1838    11.8298
N    3.8541    4.1254    8.1818
N    3.7367    5.7564    11.3816
C    2.3087    6.1199    9.4519
H    3.1158    6.3978    11.8972
C    1.5042    7.1367    10.1306
C    2.7771    4.6742    7.5606
H    2.5401    4.2763    13.6702
H    1.1430    6.0569    7.6258
Ni    5.2954    14.8304    0.3255
O    0.3212    22.2130    5.4536
O    1.3821    22.0942    3.5771
C    2.2224    12.1162    6.6365
C    3.2194    12.3300    4.4515
C    4.0373    13.3040    4.9969
H    4.7802    13.8980    4.3537
H    4.2273    12.3537    2.6750
N    4.0379    13.6604    6.2947
N    3.4099    11.9618    3.1849
C    2.2324    23.6147    5.2962
H    2.8682    23.0682    2.8346
C    1.2765    22.5693    4.7685
C    3.1536    13.0546    0.0227
H    3.1859    13.3278    1.0716
H    1.4866    23.5196    0.2560
O    5.9065    15.9399    5.9706
O    6.9700    16.3200    0.7383
C    7.3159    18.0780    4.6175
C    8.7270    18.2467    6.5642
C    9.5113    19.1887    5.8429
H    10.4172    19.5973    6.2862
H    9.7755    18.5734    1.1921
N    9.1614    19.6318    4.6359
N    9.0405    18.0008    0.7439
C    7.6160    17.6373    5.9061
H    8.4196    17.3594    1.2595
C    6.8115    16.6205    6.5847
C    8.0844    19.0830    4.0147
H    7.8439    19.4809    3.0325
H    6.4503    17.7003    4.0799
Ni    10.6061    20.8054    3.8714
O    5.6285    13.4228    1.9077
O    6.6894    13.5416    0.0312
C    7.5297    23.5196    3.0906
C    8.5267    23.3058    0.9056
C    9.3445    22.3318    1.4510
H    10.0875    21.7378    0.8078
H    9.5380    23.2821    6.2209
N    9.3452    21.9754    2.7488
N    8.7207    23.6740    6.7308
C    7.5396    12.0211    1.7503
H    8.1790    12.5676    6.3805
C    6.5838    13.0665    1.2226
C    8.4643    22.5812    3.5686
H    8.4967    22.3080    4.6175
H    6.7974    12.1162    3.8019
O    0.5958    19.6959    2.4247
O    1.6627    19.3158    4.2842
C    2.0052    17.5578    1.0716
C    3.4162    17.3891    3.0183
C    4.2005    16.4471    2.2970
H    5.1065    16.0385    2.7403
H    4.4682    17.0624    4.7380
N    3.8506    16.0040    1.0900
N    3.7333    17.6350    4.2898
C    2.3053    17.9985    2.3602
H    3.1124    18.2764    4.8054
C    1.5007    19.0153    3.0388
C    2.7737    16.5528    0.4688
H    2.5367    16.1549    6.5784
H    1.1396    17.9355    0.5340
Ni    5.2988    14.8304    7.4173
O    0.3247    22.2130    12.5454
O    1.3856    22.0942    10.6689
C    2.2259    12.1162    13.7283
C    3.2229    12.3300    11.5433
C    4.0407    13.3040    12.0887
H    4.7837    13.8980    11.4455
H    4.2307    12.3537    9.7668
N    4.0414    13.6604    13.3865
N    3.4134    11.9618    10.2767
C    2.2358    23.6147    12.3880
H    2.8717    23.0682    9.9264
C    1.2800    22.5693    11.8603
C    3.1570    13.0546    7.1145
H    3.1894    13.3278    8.1634
H    1.4901    23.5196    7.3478
O    5.9100    15.9399    13.0624
O    6.9735    16.3200    7.8301
C    7.3194    18.0780    11.7093
C    8.7304    18.2467    13.6560
C    9.5147    19.1887    12.9347
H    10.4207    19.5973    13.3780
H    9.7790    18.5734    8.2839
N    9.1648    19.6318    11.7277
N    9.0440    18.0008    7.8357
C    7.6195    17.6373    12.9978
H    8.4231    17.3594    8.3513
C    6.8149    16.6205    13.6765
C    8.0878    19.0830    11.1065
H    7.8474    19.4809    10.1243
H    6.4538    17.7003    11.1717
Ni    10.6096    20.8054    10.9632
O    5.6319    13.4228    8.9995
O    6.6928    13.5416    7.1230
C    7.5331    23.5196    10.1824
C    8.5302    23.3058    7.9974
C    9.3480    22.3318    8.5428
H    10.0910    21.7378    7.8996
H    9.5415    23.2821    13.3127
N    9.3486    21.9754    9.8406
N    8.7241    23.6740    13.8226
C    7.5431    12.0211    8.8421
H    8.1824    12.5676    13.4723
C    6.5872    13.0665    8.3144
C    8.4678    22.5812    10.6604
H    8.5001    22.3080    11.7093
H    6.8008    12.1162    10.8937
O    0.5993    19.6959    9.5165
O    1.6662    19.3158    11.3760
C    2.0087    17.5578    8.1634
C    3.4197    17.3891    10.1101
C    4.2040    16.4471    9.3888
H    5.1099    16.0385    9.8321
H    4.4717    17.0624    11.8298
N    3.8541    16.0040    8.1818
N    3.7367    17.6350    11.3816
C    2.3087    17.9985    9.4519
H    3.1158    18.2764    11.8972
C    1.5042    19.0153    10.1306
C    2.7771    16.5528    7.5606
H    2.5401    16.1549    13.6702
H    1.1430    17.9355    7.6258
Ni    15.9134    2.9518    0.3255
O    10.9392    10.3344    5.4536
O    12.0001    10.2156    3.5771
C    12.8404    0.2376    6.6365
C    13.8374    0.4514    4.4515
C    14.6553    1.4254    4.9969
H    15.3982    2.0194    4.3537
H    14.8453    0.4751    2.6750
N    14.6559    1.7818    6.2947
N    14.0279    0.0832    3.1849
C    12.8504    11.7361    5.2962
H    13.4862    11.1896    2.8346
C    11.8945    10.6907    4.7685
C    13.7716    1.1760    0.0227
H    13.8039    1.4492    1.0716
H    12.1046    11.6410    0.2560
O    16.5245    4.0613    5.9706
O    17.5880    4.4414    0.7383
C    17.9339    6.1994    4.6175
C    19.3450    6.3681    6.5642
C    20.1293    7.3101    5.8429
H    21.0352    7.7187    6.2862
H    20.3935    6.6948    1.1921
N    19.7794    7.7532    4.6359
N    19.6585    6.1222    0.7439
C    18.2340    5.7587    5.9061
H    19.0376    5.4808    1.2595
C    17.4295    4.7419    6.5847
C    18.7024    7.2044    4.0147
H    18.4619    7.6023    3.0325
H    17.0683    5.8217    4.0799
Ni    21.2241    8.9268    3.8714
O    16.2465    1.5442    1.9077
O    17.3074    1.6630    0.0312
C    18.1477    11.6410    3.0906
C    19.1447    11.4272    0.9056
C    19.9625    10.4532    1.4510
H    20.7055    9.8592    0.8078
H    20.1560    11.4035    6.2209
N    19.9632    10.0968    2.7488
N    19.3387    11.7954    6.7308
C    18.1576    0.1425    1.7503
H    18.7970    0.6890    6.3805
C    17.2018    1.1879    1.2226
C    19.0823    10.7026    3.5686
H    19.1147    10.4294    4.6175
H    17.4154    0.2376    3.8019
O    11.2138    7.8173    2.4247
O    12.2807    7.4372    4.2842
C    12.6232    5.6792    1.0716
C    14.0342    5.5105    3.0183
C    14.8185    4.5685    2.2970
H    15.7245    4.1599    2.7403
H    15.0862    5.1838    4.7380
N    14.4686    4.1254    1.0900
N    14.3513    5.7564    4.2898
C    12.9233    6.1199    2.3602
H    13.7304    6.3978    4.8054
C    12.1187    7.1367    3.0388
C    13.3917    4.6742    0.4688
H    13.1547    4.2763    6.5784
H    11.7576    6.0569    0.5340
Ni    15.9168    2.9518    7.4173
O    10.9427    10.3344    12.5454
O    12.0036    10.2156    10.6689
C    12.8439    0.2376    13.7283
C    13.8409    0.4514    11.5433
C    14.6587    1.4254    12.0887
H    15.4017    2.0194    11.4455
H    14.8487    0.4751    9.7668
N    14.6594    1.7818    13.3865
N    14.0314    0.0832    10.2767
C    12.8538    11.7361    12.3880
H    13.4897    11.1896    9.9264
C    11.8980    10.6907    11.8603
C    13.7750    1.1760    7.1145
H    13.8074    1.4492    8.1634
H    12.1081    11.6410    7.3478
O    16.5280    4.0613    13.0624
O    17.5915    4.4414    7.8301
C    17.9374    6.1994    11.7093
C    19.3484    6.3681    13.6560
C    20.1327    7.3101    12.9347
H    21.0387    7.7187    13.3780
H    20.3970    6.6948    8.2839
N    19.7828    7.7532    11.7277
N    19.6620    6.1222    7.8357
C    18.2375    5.7587    12.9978
H    19.0411    5.4808    8.3513
C    17.4329    4.7419    13.6765
C    18.7058    7.2044    11.1065
H    18.4654    7.6023    10.1243
H    17.0718    5.8217    11.1717
Ni    21.2276    8.9268    10.9632
O    16.2499    1.5442    8.9995
O    17.3108    1.6630    7.1230
C    18.1511    11.6410    10.1824
C    19.1482    11.4272    7.9974
C    19.9660    10.4532    8.5428
H    20.7090    9.8592    7.8996
H    20.1595    11.4035    13.3127
N    19.9666    10.0968    9.8406
N    19.3421    11.7954    13.8226
C    18.1611    0.1425    8.8421
H    18.8004    0.6890    13.4723
C    17.2052    1.1879    8.3144
C    19.0858    10.7026    10.6604
H    19.1181    10.4294    11.7093
H    17.4188    0.2376    10.8937
O    11.2173    7.8173    9.5165
O    12.2842    7.4372    11.3760
C    12.6267    5.6792    8.1634
C    14.0377    5.5105    10.1101
C    14.8220    4.5685    9.3888
H    15.7279    4.1599    9.8321
H    15.0897    5.1838    11.8298
N    14.4721    4.1254    8.1818
N    14.3547    5.7564    11.3816
C    12.9267    6.1199    9.4519
H    13.7338    6.3978    11.8972
C    12.1222    7.1367    10.1306
C    13.3951    4.6742    7.5606
H    13.1581    4.2763    13.6702
H    11.7610    6.0569    7.6258
Ni    15.9134    14.8304    0.3255
O    10.9392    22.2130    5.4536
O    12.0001    22.0942    3.5771
C    12.8404    12.1162    6.6365
C    13.8374    12.3300    4.4515
C    14.6553    13.3040    4.9969
H    15.3982    13.8980    4.3537
H    14.8453    12.3537    2.6750
N    14.6559    13.6604    6.2947
N    14.0279    11.9618    3.1849
C    12.8504    23.6147    5.2962
H    13.4862    23.0682    2.8346
C    11.8945    22.5693    4.7685
C    13.7716    13.0546    0.0227
H    13.8039    13.3278    1.0716
H    12.1046    23.5196    0.2560
O    16.5245    15.9399    5.9706
O    17.5880    16.3200    0.7383
C    17.9339    18.0780    4.6175
C    19.3450    18.2467    6.5642
C    20.1293    19.1887    5.8429
H    21.0352    19.5973    6.2862
H    20.3935    18.5734    1.1921
N    19.7794    19.6318    4.6359
N    19.6585    18.0008    0.7439
C    18.2340    17.6373    5.9061
H    19.0376    17.3594    1.2595
C    17.4295    16.6205    6.5847
C    18.7024    19.0830    4.0147
H    18.4619    19.4809    3.0325
H    17.0683    17.7003    4.0799
Ni    21.2241    20.8054    3.8714
O    16.2465    13.4228    1.9077
O    17.3074    13.5416    0.0312
C    18.1477    23.5196    3.0906
C    19.1447    23.3058    0.9056
C    19.9625    22.3318    1.4510
H    20.7055    21.7378    0.8078
H    20.1560    23.2821    6.2209
N    19.9632    21.9754    2.7488
N    19.3387    23.6740    6.7308
C    18.1576    12.0211    1.7503
H    18.7970    12.5676    6.3805
C    17.2018    13.0665    1.2226
C    19.0823    22.5812    3.5686
H    19.1147    22.3080    4.6175
H    17.4154    12.1162    3.8019
O    11.2138    19.6959    2.4247
O    12.2807    19.3158    4.2842
C    12.6232    17.5578    1.0716
C    14.0342    17.3891    3.0183
C    14.8185    16.4471    2.2970
H    15.7245    16.0385    2.7403
H    15.0862    17.0624    4.7380
N    14.4686    16.0040    1.0900
N    14.3513    17.6350    4.2898
C    12.9233    17.9985    2.3602
H    13.7304    18.2764    4.8054
C    12.1187    19.0153    3.0388
C    13.3917    16.5528    0.4688
H    13.1547    16.1549    6.5784
H    11.7576    17.9355    0.5340
Ni    15.9168    14.8304    7.4173
O    10.9427    22.2130    12.5454
O    12.0036    22.0942    10.6689
C    12.8439    12.1162    13.7283
C    13.8409    12.3300    11.5433
C    14.6587    13.3040    12.0887
H    15.4017    13.8980    11.4455
H    14.8487    12.3537    9.7668
N    14.6594    13.6604    13.3865
N    14.0314    11.9618    10.2767
C    12.8538    23.6147    12.3880
H    13.4897    23.0682    9.9264
C    11.8980    22.5693    11.8603
C    13.7750    13.0546    7.1145
H    13.8074    13.3278    8.1634
H    12.1081    23.5196    7.3478
O    16.5280    15.9399    13.0624
O    17.5915    16.3200    7.8301
C    17.9374    18.0780    11.7093
C    19.3484    18.2467    13.6560
C    20.1327    19.1887    12.9347
H    21.0387    19.5973    13.3780
H    20.3970    18.5734    8.2839
N    19.7828    19.6318    11.7277
N    19.6620    18.0008    7.8357
C    18.2375    17.6373    12.9978
H    19.0411    17.3594    8.3513
C    17.4329    16.6205    13.6765
C    18.7058    19.0830    11.1065
H    18.4654    19.4809    10.1243
H    17.0718    17.7003    11.1717
Ni    21.2276    20.8054    10.9632
O    16.2499    13.4228    8.9995
O    17.3108    13.5416    7.1230
C    18.1511    23.5196    10.1824
C    19.1482    23.3058    7.9974
C    19.9660    22.3318    8.5428
H    20.7090    21.7378    7.8996
H    20.1595    23.2821    13.3127
N    19.9666    21.9754    9.8406
N    19.3421    23.6740    13.8226
C    18.1611    12.0211    8.8421
H    18.8004    12.5676    13.4723
C    17.2052    13.0665    8.3144
C    19.0858    22.5812    10.6604
H    19.1181    22.3080    11.7093
H    17.4188    12.1162    10.8937
O    11.2173    19.6959    9.5165
O    12.2842    19.3158    11.3760
C    12.6267    17.5578    8.1634
C    14.0377    17.3891    10.1101
C    14.8220    16.4471    9.3888
H    15.7279    16.0385    9.8321
H    15.0897    17.0624    11.8298
N    14.4721    16.0040    8.1818
N    14.3547    17.6350    11.3816
C    12.9267    17.9985    9.4519
H    13.7338    18.2764    11.8972
C    12.1222    19.0153    10.1306
C    13.3951    16.5528    7.5606
H    13.1581    16.1549    13.6702
H    11.7610    17.9355    7.6258
