188
Atoms. Timestep: 0
Ni 2.89857 9.41116 8.59265
Ni 6.17525 3.10579 3.48481
O 1.44827 4.35425 3.93374
O 4.4416 8.15245 9.05464
O 4.63665 1.84729 3.87523
O 1.36499 10.6744 9.00295
O 5.80609 4.46033 4.96242
O 2.54244 8.0327 10.0675
O 0.25117 1.69264 4.94273
O 3.23722 10.8047 10.0626
N 3.69677 10.6606 7.2416
N 0.71256 1.8642 2.11704
N 2.17217 8.14409 7.25198
N 5.44023 4.39481 2.13747
C 3.48546 12.1483 5.36301
C 0.47488 0.38955 0.2292
H 2.86453 12.5181 4.55267
H 5.86971 0.03371 9.69377
C 4.76073 0.1474 5.61481
C 1.74333 12.3699 0.47412
C 5.50345 12.1502 6.68209
C 2.49852 0.35508 1.54004
H 0.24768 12.5084 6.91993
H 3.49155 12.5067 1.77336
C 2.48363 6.6337 5.40822
C 5.72803 5.90364 0.28669
H 3.13294 6.27291 4.61605
H -0.10828 6.26667 9.7662
C 2.92756 7.68099 6.23068
C 6.1883 4.86756 1.11596
H 3.89994 8.14655 6.0889
C 2.98256 11.1359 6.19748
C -0.01036 1.40553 1.07106
H 1.99392 10.709 6.04703
C 4.93641 11.1381 7.47507
C 1.94823 1.3719 2.3406
H 2.50886 1.79214 3.17267
C 0.94573 7.62654 7.47302
C 4.21083 4.90458 2.35686
H 3.63605 4.47744 3.17528
C 0.43859 6.57577 6.69176
C 3.68763 5.945 1.56944
H 5.70774 6.17693 6.91975
H 2.69824 6.32683 1.80071
C 1.22745 6.06471 5.65205
C 4.46338 6.45777 0.52027
C 5.3126 1.24381 4.79419
C 2.0502 11.2675 9.92158
C 0.73548 4.94016 4.83586
C 3.73174 7.56629 9.95688
Ni 9.15137 9.41116 8.59265
Ni 12.4281 3.10579 3.48481
O 7.70109 4.35425 3.93374
O 10.6944 8.15245 9.05464
O 10.8895 1.84729 3.87523
O 7.61779 10.6744 9.00295
O 12.0589 4.46033 4.96242
O 8.79524 8.0327 10.0675
O 6.50397 1.69264 4.94273
O 9.49002 10.8047 10.0626
N 9.94957 10.6606 7.2416
N 6.96536 1.8642 2.11704
N 8.42499 8.14409 7.25198
N 11.693 4.39481 2.13747
C 9.73826 12.1483 5.36301
C 6.72768 0.38955 0.2292
H 9.11733 12.5181 4.55267
H 12.1225 0.03371 9.69377
C 11.0135 0.1474 5.61481
C 7.99613 12.3699 0.47412
C 11.7562 12.1502 6.68209
C 8.75132 0.35508 1.54004
H 6.50047 12.5084 6.91993
H 9.74435 12.5067 1.77336
C 8.73644 6.6337 5.40822
C 11.9808 5.90364 0.28669
H 9.38574 6.27291 4.61605
H 6.14452 6.26667 9.7662
C 9.18036 7.68099 6.23068
C 12.4411 4.86756 1.11596
C 9.23536 11.1359 6.19748
C 6.24244 1.40553 1.07106
H 8.24672 10.709 6.04703
C 11.1892 11.1381 7.47507
C 8.20102 1.3719 2.3406
H 8.76167 1.79214 3.17267
C 7.19853 7.62654 7.47302
C 10.4636 4.90458 2.35686
H 6.61608 8.05184 8.28732
H 9.88885 4.47744 3.17528
C 6.69139 6.57577 6.69176
C 9.94043 5.945 1.56944
H 11.9605 6.17693 6.91975
H 8.95104 6.32683 1.80071
C 7.48025 6.06471 5.65205
C 10.7162 6.45777 0.52027
C 11.5654 1.24381 4.79419
C 8.303 11.2675 9.92158
C 6.98827 4.94016 4.83586
C 9.98454 7.56629 9.95688
O 5.71376 10.6421 8.52325
C 5.31826 9.65038 9.40006
C 6.66868 9.38619 0.12718
H 4.40669 9.9769 9.94804
H 5.10202 8.71622 8.83578
C 6.27963 8.29519 1.12048
H 7.35598 9.06957 9.8548
H 6.89308 10.3214 0.68499
H 6.06994 7.34378 0.58662
H 7.11398 8.1264 1.83342
H 5.37775 8.59863 1.69379
O 11.234 1.92376 0.78384
C 10.606 2.92165 1.50394
C 9.2428 3.2122 0.87901
H 11.225 3.84586 1.48117
H 10.4645 2.59104 2.5568
C 8.50717 4.31087 1.64064
H 8.62646 2.28696 0.89162
H 9.15406 3.533 10.0979
H 8.33889 4.00369 2.6949
H 7.52229 4.49887 1.16357
H 9.09593 5.25279 1.62428
O 0.12857 8.11648 8.49089
C 0.46665 9.14297 9.35151
C 12.0459 9.38722 0.04786
H 1.37761 8.86473 9.92647
H 0.6597 10.0712 8.76937
C 12.3712 10.5154 1.02236
H 10.9044 9.65547 9.74867
H 11.8449 8.45744 0.62337
H 0.05078 11.4614 0.4701
H 11.5155 10.6687 1.71313
H 0.76544 10.2605 1.62188
O 7.4504 4.34412 0.84378
C 8.05529 3.3263 1.55569
C 9.42839 3.03659 0.95235
H 8.1783 3.63413 2.61774
H 7.42915 2.40822 1.50154
C 10.1392 1.91613 1.70578
H 9.08063 2.73864 10.1623
H 10.0521 3.95592 0.99639
H 9.54301 0.97997 1.65818
H 11.1319 1.72927 1.24478
H 10.2887 2.20019 2.7693
O 11.9666 10.6421 8.52326
C 11.571 9.65057 9.40023
C 0.41582 9.3863 0.12727
H 11.3545 8.71636 8.83609
H 10.6595 9.97734 9.94823
C 0.02662 8.29558 1.12082
H 0.64051 10.3215 0.68489
H 1.10299 9.06937 9.85484
H 11.6305 8.59936 1.69419
H 0.86101 8.1267 1.83369
H 12.3222 7.34414 0.58718
O 4.98115 1.92376 0.78384
C 4.35322 2.92165 1.50394
C 2.99 3.2122 0.87901
H 4.97222 3.84586 1.48117
H 4.21169 2.59104 2.5568
C 2.25437 4.31087 1.64064
H 2.37366 2.28696 0.89162
H 2.90126 3.533 10.0979
H 2.08609 4.00369 2.6949
H 1.26949 4.49887 1.16357
H 2.84313 5.25279 1.62428
O 10.4315 8.22621 5.95399
C 11.0192 9.25799 6.66015
C -0.12003 9.57003 6.05258
H 11.1501 8.95711 7.72327
H 10.3764 10.1642 6.60337
C 0.57183 10.7065 6.79957
H 12.2578 9.86106 4.98718
H 0.52042 8.66242 6.09924
H -0.04143 11.6315 6.74921
H 1.56 10.9094 6.33561
H 0.72869 10.4299 7.864
O 1.1976 4.3441 0.84378
C 1.80247 3.32629 1.55569
C 3.17557 3.03656 0.95235
H 1.92549 3.63412 2.61775
H 1.17634 2.40822 1.50154
C 3.8864 1.91611 1.70578
H 2.82782 2.73862 10.1623
H 3.79929 3.95589 0.99639
H 3.29018 0.97994 1.65819
H 4.87911 1.72923 1.24479
H 4.03586 2.20016 2.76931
188
Atoms. Timestep: 350
Ni 2.94141 9.37227 9.48491
Ni 6.09343 2.79084 4.01183
O 1.11749 4.60727 4.22184
O 4.24881 8.11719 9.60414
O 4.63377 1.7291 4.32224
O 1.61269 10.6341 9.54279
O 5.74066 3.96028 5.34321
O 2.72918 8.29218 0.598952
O 0.285035 2.19853 5.1535
O 3.63321 10.6564 0.458053
N 3.83917 10.4219 8.10073
N 0.730726 2.28314 2.40172
N 2.07927 8.14672 8.2112
N 5.31442 4.11198 2.72497
C 3.8439 11.5567 5.90889
C 1.09659 0.970094 0.284281
H 3.44011 11.601 4.90752
H 7.10334 1.04515 9.42563
C 4.9053 12.4025 6.25266
C 2.12734 0.218587 0.823311
C 5.56486 12.0844 7.49631
C 2.53624 0.59155 2.12586
H 0.170095 0.276465 7.35473
H 3.18604 12.4613 2.67569
C 2.36845 6.44387 6.42824
C 5.54963 5.6782 0.836493
H 3.00803 6.06943 5.65068
H 11.6151 6.03301 9.77578
C 2.87196 7.46988 7.29606
C 6.04388 4.57027 1.63174
H 3.89783 7.77275 7.17857
C 3.35801 10.5543 6.81708
C 0.452283 2.05726 0.998735
H 2.70019 9.81867 6.43735
C 5.00828 11.0929 8.44998
C 1.84676 1.6098 2.87475
H 2.19372 1.80916 3.86383
C 0.792102 7.66999 8.45885
C 4.3589 4.98295 3.22953
H 3.86279 4.74397 4.13757
C 0.278152 6.54564 7.6123
C 4.05544 6.23377 2.60655
H 5.44058 6.76142 5.92781
H 3.36715 6.91522 3.09067
C 1.04355 5.98183 6.51035
C 4.51401 6.50593 1.30679
C 5.3997 1.05084 5.25627
C 2.55804 11.3645 0.147378
C 0.399064 5.12814 5.27312
C 3.84488 7.56122 0.35805
Ni 8.87385 9.29533 8.62171
Ni 12.2612 3.42869 3.91066
O 7.56021 3.81837 4.0861
O 10.1251 8.05196 8.86237
O 10.8978 2.21609 4.0171
O 7.56217 10.5428 8.68463
O 11.699 4.49228 5.29222
O 8.0956 7.94911 9.63087
O 6.63787 1.59337 5.26947
O 9.15213 10.1625 10.0856
N 9.91274 10.7366 7.58581
N 6.6975 1.49965 2.47903
N 8.33398 8.31844 6.94711
N 11.3903 4.72789 2.57251
C 9.81096 12.2847 5.64184
C 7.17386 0.731243 0.15046
H 9.32357 0.0132592 4.72597
H 0.544465 0.727907 9.56399
C 11.0212 0.391424 5.94155
C 7.92352 12.1719 0.560879
C 11.6849 12.4351 7.12295
C 8.20932 12.1592 1.94463
H 6.49318 0.0492853 7.71028
H 8.81599 11.4059 2.35835
C 8.74373 6.19916 5.76015
C 11.3211 5.74481 0.348473
H 9.45638 5.42487 5.58546
H 5.80654 5.93869 10.1808
C 9.21069 7.42535 6.29109
C 12.0407 5.12956 1.4542
C 9.24884 11.2603 6.48147
C 6.37516 1.53074 1.08658
H 8.29477 10.8412 6.19535
C 11.0513 11.4823 8.03701
C 7.4664 0.421091 2.867
H 7.38849 12.5606 3.8589
C 6.9823 8.09779 6.73918
C 10.1087 5.22631 2.74832
H 6.26405 8.78857 7.15444
H 9.54969 4.89745 3.57976
C 6.49887 6.89973 6.08318
C 9.44893 6.05671 1.74025
H 11.7912 6.19194 7.75147
H 8.49995 6.49873 1.96435
C 7.39763 5.91076 5.6264
C 10.0309 6.24887 0.459099
C 11.6141 1.54031 4.96845
C 8.19166 11.0193 9.80964
C 6.94155 4.5141 5.08822
C 9.27076 7.27605 9.59401
O 5.47669 11.088 9.8329
C 6.04647 9.81811 0.252469
C 6.73845 9.77104 1.65758
H 5.22519 9.4328 0.758343
H 6.22137 9.07767 9.84361
C 6.48145 8.57342 2.57642
H 7.80354 9.67965 1.51702
H 6.40882 10.6041 2.28528
H 6.70708 7.64962 2.03659
H 7.15653 8.61939 3.45909
H 5.43776 8.58467 2.94964
O 11.9606 2.74336 0.309213
C 12.116 3.1259 9.24624
C 11.1219 2.62582 8.19768
H 12.2257 4.18975 9.11412
H 0.632774 2.82309 8.95
C 10.08 3.59541 7.61104
H 10.6089 1.71655 8.56377
H 11.7782 2.40486 7.35713
H 9.04637 3.36428 7.90612
H 10.016 3.43964 6.51969
H 10.2873 4.64993 7.85354
O -0.125875 8.44314 9.28604
C 0.224244 8.49857 0.483477
C 11.5106 8.38842 1.49645
H 0.735388 7.63098 0.789645
H 0.746731 9.3822 0.772356
C 10.5236 9.06337 2.49423
H 10.8108 8.43599 0.747972
H 11.7029 7.48849 2.10051
H 9.8255 9.70464 2.00202
H 9.8834 8.29704 2.97635
H 10.8707 9.63813 3.33852
O 7.37731 4.23961 1.54957
C 7.81298 4.00491 0.228572
C 9.06628 3.14145 0.216247
H 6.85945 3.54626 9.85228
H 7.78392 4.95696 9.98319
C 9.46451 2.44632 1.50462
H 8.75894 2.3646 9.72128
H 9.65404 3.77267 10.1685
H 9.7241 1.41243 1.29315
H 10.3917 2.81307 1.86697
H 8.8032 2.57631 2.35961
O 11.7519 11.1745 9.24395
C 11.3468 11.6447 0.168936
C 11.7332 11.9309 1.6751
H 11.2121 10.6628 0.536086
H 10.2831 12.3291 10.2112
C 0.345907 11.2527 2.47241
H 10.8619 11.6788 2.29137
H 11.6103 0.442244 1.95984
H 0.133883 10.2697 2.81347
H 0.587523 11.8995 3.32949
H 1.2534 10.9287 2.02948
O 5.08303 1.85843 0.676855
C 4.75985 2.34415 9.59068
C 3.5122 1.8341 8.88718
H 5.55987 2.11249 8.88555
H 4.74942 3.44305 9.59009
C 3.29185 2.4732 7.53318
H 2.65199 2.11174 9.46009
H 3.52979 0.737783 8.79477
H 4.25423 2.70727 7.04306
H 2.70688 1.77729 6.89661
H 2.71394 3.41746 7.63654
O 10.5823 7.53408 6.384
C 11.066 8.7716 5.99294
C -0.105831 8.75557 5.2642
H 11.365 9.20017 6.94655
H 10.3432 9.34966 5.3883
C 0.452417 10.1554 5.3008
H 12.3494 8.32067 4.25245
H 0.645432 8.20939 5.78596
H 12.1922 10.8546 4.94294
H 1.38162 10.2094 4.70214
H 0.672267 10.4472 6.34498
O 0.74173 4.57997 1.235
C 1.66607 5.41083 0.681897
C 2.73869 4.54592 0.268919
H 1.13316 5.86489 10.0288
H 1.95239 6.11178 1.46042
C 3.13445 3.52229 1.16089
H 3.01126 4.70796 9.59736
H 2.79597 3.3396 5.25679
H 5.0227 12.07 1.84626
H 3.10999 9.42846 3.14204
H 1.54276 0.163106 5.43837
188
Atoms. Timestep: 358
Ni 2.9388 9.37376 9.48706
Ni 6.09306 2.79032 4.01124
O 1.11987 4.60867 4.22075
O 4.24742 8.12015 9.60607
O 4.63427 1.72761 4.31987
O 1.61069 10.634 9.54619
O 5.74058 3.96019 5.34388
O 2.7265 8.29183 0.600992
O 0.28622 2.19919 5.15245
O 3.63164 10.6567 0.460878
N 3.83557 10.4265 8.10382
N 0.732493 2.28424 2.39961
N 2.07743 8.14899 8.21156
N 5.31265 4.11142 2.72544
C 3.84301 11.552 5.9075
C 1.09955 0.972315 0.280603
H 3.44925 11.5825 4.90218
H 7.10709 1.04401 9.42322
C 4.90284 12.4018 6.25098
C 2.1287 0.22003 0.821424
C 5.56296 12.0867 7.49408
C 2.53704 0.592693 2.12336
H 0.16991 0.281269 7.35108
H 3.18167 12.459 2.6745
C 2.3695 6.44398 6.43033
C 5.54245 5.67283 0.833355
H 3.01188 6.06527 5.6576
H 11.6148 6.03619 9.77495
C 2.87144 7.47103 7.29795
C 6.03962 4.5684 1.62991
H 3.89682 7.77502 7.17947
C 3.35684 10.5529 6.81872
C 0.453838 2.05853 0.996088
H 2.70775 9.80988 6.43709
C 5.00498 11.0985 8.45143
C 1.84737 1.60969 2.87279
H 2.19164 1.8049 3.86391
C 0.789203 7.67538 8.45494
C 4.35562 4.98177 3.2299
H 3.85124 4.7366 4.13266
C 0.275427 6.55132 7.60738
C 4.05338 6.23353 2.60715
H 5.44329 6.7608 5.93407
H 3.36299 6.91351 3.08841
C 1.04252 5.98626 6.5079
C 4.51093 6.50493 1.30625
C 5.39984 1.04587 5.2505
C 2.55634 11.3642 0.149474
C 0.400649 5.13019 5.27068
C 3.84371 7.56319 0.360199
Ni 8.87388 9.29439 8.62304
Ni 12.2635 3.42992 3.90949
O 7.55974 3.81849 4.08597
O 10.1245 8.05061 8.86388
O 10.8991 2.21781 4.01593
O 7.56179 10.5431 8.6846
O 11.7012 4.49275 5.29089
O 8.09421 7.94657 9.63041
O 6.63754 1.59141 5.26848
O 9.15036 10.1604 10.0876
N 9.91514 10.7369 7.58796
N 6.69815 1.50046 2.4783
N 8.33665 8.31871 6.94754
N 11.3928 4.73041 2.57274
C 9.81262 12.2814 5.64069
C 7.17701 0.732641 0.149668
H 9.31987 0.0147073 4.72875
H 0.551592 0.732886 9.55716
C 11.0222 0.390288 5.93902
C 7.92466 12.1721 0.561118
C 11.6861 12.4365 7.12053
C 8.20835 12.1585 1.94525
H 6.50018 0.0420953 7.69772
H 8.81012 11.4017 2.36051
C 8.7458 6.19715 5.76491
C 11.3201 5.74305 0.347624
H 9.45885 5.42128 5.59431
H 5.79391 5.92702 10.1733
C 9.21292 7.42341 6.29353
C 12.0408 5.12842 1.45298
C 9.25091 11.2584 6.4826
C 6.37665 1.53227 1.08657
H 8.29785 10.8368 6.19693
C 11.0534 11.486 8.03758
C 7.46543 0.421 2.86682
H 7.38564 0.0367293 3.85871
C 6.98553 8.09862 6.73984
C 10.1129 5.23177 2.75106
H 6.26783 8.78353 7.1654
H 9.5536 4.90045 3.58216
C 6.50187 6.90237 6.0813
C 9.4497 6.05758 1.74059
H 11.7912 6.19052 7.75132
H 8.49927 6.49766 1.96288
C 7.39972 5.91127 5.62653
C 10.0306 6.24729 0.459151
C 11.6153 1.54086 4.96704
C 8.19102 11.0181 9.81083
C 6.94245 4.51396 5.08879
C 9.26984 7.27411 9.59422
O 5.47586 11.0927 9.83372
C 6.04647 9.82176 0.251034
C 6.73867 9.77072 1.65618
H 5.22639 9.43712 0.757228
H 6.22179 9.08264 9.84033
C 6.47715 8.57443 2.57597
H 7.80422 9.67437 1.51706
H 6.4111 10.6026 2.28574
H 6.70254 7.64891 2.03856
H 7.14955 8.62836 3.46056
H 5.43259 8.58308 2.94689
O 11.9595 2.74173 0.308551
C 12.1154 3.12825 9.2466
C 11.1233 2.62629 8.19939
H 12.2205 4.19187 9.1156
H 0.633784 2.83078 8.94957
C 10.0793 3.5965 7.61723
H 10.6171 1.71534 8.56958
H 11.7792 2.40622 7.35758
H 9.04379 3.36887 7.90996
H 10.0179 3.44251 6.52674
H 10.2877 4.65108 7.85699
O -0.128915 8.45019 9.28038
C 0.222429 8.49707 0.477352
C 11.5118 8.38908 1.49424
H 0.727999 7.62281 0.771589
H 0.747771 9.37702 0.773054
C 10.5283 9.06589 2.49343
H 10.8109 8.43662 0.74675
H 11.7067 7.49003 2.09916
H 9.83282 9.70993 2.00143
H 9.88554 8.30118 2.97469
H 10.8763 9.63894 3.33894
O 7.37349 4.24342 1.54784
C 7.81017 4.00755 0.22685
C 9.0629 3.14454 0.217302
H 6.8583 3.54321 9.85279
H 7.78361 4.95775 9.97813
C 9.4593 2.45514 1.50813
H 8.75524 2.36899 9.72286
H 9.65234 3.77155 10.1707
H 9.72049 1.4209 1.30027
H 10.386 2.82529 1.86855
H 8.79418 2.58586 2.36005
O 11.7562 11.1824 9.24425
C 11.3473 11.6404 0.171362
C 11.7355 11.9331 1.67429
H 11.2119 10.6577 0.532587
H 10.2821 12.3241 10.2171
C 0.348559 11.2584 2.47515
H 10.8641 11.6846 2.2927
H 11.615 0.44478 1.95332
H 0.137111 10.2767 2.81708
H 0.588427 11.9059 3.33299
H 1.25307 10.9319 2.02993
O 5.0841 1.86041 0.677814
C 4.76049 2.34234 9.59086
C 3.51798 1.82861 8.88599
H 5.56097 2.10887 8.88827
H 4.74115 3.44108 9.58858
C 3.30063 2.46852 7.53109
H 2.65559 2.10601 9.45357
H 3.53562 0.731985 8.80134
H 4.25969 2.69979 7.03105
H 2.70376 1.77513 6.90393
H 2.73347 3.41898 7.63361
O 10.5839 7.53149 6.38575
C 11.0672 8.76996 5.9989
C -0.107091 8.75463 5.26443
H 11.3673 9.19533 6.95444
H 10.343 9.34952 5.39721
C 0.450648 10.153 5.29963
H 12.3434 8.31899 4.25368
H 0.649848 8.21073 5.77959
H 12.1885 10.8504 4.94212
H 1.37897 10.2057 4.70012
H 0.674475 10.4423 6.34295
O 0.741401 4.57896 1.23326
C 1.6654 5.40885 0.676827
C 2.73825 4.54483 0.26846
H 1.13065 5.85569 10.0197
H 1.95054 6.11387 1.45411
C 3.13019 3.51809 1.15885
H 3.01854 4.71165 9.60121
H 2.7915 3.33671 5.26404
H 5.02206 12.0641 1.85433
H 3.1105 9.44077 3.14341
H 1.53313 0.153701 5.45415
188
Atoms. Timestep: 359
Ni 2.9388 9.37376 9.48706
Ni 6.09306 2.79032 4.01124
O 1.11987 4.60867 4.22075
O 4.24742 8.12015 9.60607
O 4.63427 1.72761 4.31987
O 1.61069 10.634 9.54619
O 5.74058 3.96019 5.34388
O 2.7265 8.29183 0.600992
O 0.28622 2.19919 5.15245
O 3.63164 10.6567 0.460878
N 3.83557 10.4265 8.10382
N 0.732493 2.28424 2.39961
N 2.07743 8.14899 8.21156
N 5.31265 4.11142 2.72544
C 3.84301 11.552 5.9075
C 1.09955 0.972315 0.280603
H 3.44925 11.5825 4.90218
H 7.10709 1.04401 9.42322
C 4.90284 12.4018 6.25098
C 2.1287 0.22003 0.821424
C 5.56296 12.0867 7.49408
C 2.53704 0.592693 2.12336
H 0.16991 0.281269 7.35108
H 3.18167 12.459 2.6745
C 2.3695 6.44398 6.43033
C 5.54245 5.67283 0.833355
H 3.01188 6.06527 5.6576
H 11.6148 6.03619 9.77495
C 2.87144 7.47103 7.29795
C 6.03962 4.5684 1.62991
H 3.89682 7.77502 7.17947
C 3.35684 10.5529 6.81872
C 0.453838 2.05853 0.996088
H 2.70775 9.80988 6.43709
C 5.00498 11.0985 8.45143
C 1.84737 1.60969 2.87279
H 2.19164 1.8049 3.86391
C 0.789203 7.67538 8.45494
C 4.35562 4.98177 3.2299
H 3.85124 4.7366 4.13266
C 0.275427 6.55132 7.60738
C 4.05338 6.23353 2.60715
H 5.44329 6.7608 5.93407
H 3.36299 6.91351 3.08841
C 1.04252 5.98626 6.5079
C 4.51093 6.50493 1.30625
C 5.39984 1.04587 5.2505
C 2.55634 11.3642 0.149474
C 0.400649 5.13019 5.27068
C 3.84371 7.56319 0.360199
Ni 8.87388 9.29439 8.62304
Ni 12.2635 3.42992 3.90949
O 7.55974 3.81849 4.08597
O 10.1245 8.05061 8.86388
O 10.8991 2.21781 4.01593
O 7.56179 10.5431 8.6846
O 11.7012 4.49275 5.29089
O 8.09421 7.94657 9.63041
O 6.63754 1.59141 5.26848
O 9.15036 10.1604 10.0876
N 9.91514 10.7369 7.58796
N 6.69815 1.50046 2.4783
N 8.33665 8.31871 6.94754
N 11.3928 4.73041 2.57274
C 9.81262 12.2814 5.64069
C 7.17701 0.732641 0.149668
H 9.31987 0.0147073 4.72875
H 0.551592 0.732886 9.55716
C 11.0222 0.390288 5.93902
C 7.92466 12.1721 0.561118
C 11.6861 12.4365 7.12053
C 8.20835 12.1585 1.94525
H 6.50018 0.0420953 7.69772
H 8.81012 11.4017 2.36051
C 8.7458 6.19715 5.76491
C 11.3201 5.74305 0.347624
H 9.45885 5.42128 5.59431
H 5.79391 5.92702 10.1733
C 9.21292 7.42341 6.29353
C 12.0408 5.12842 1.45298
C 9.25091 11.2584 6.4826
C 6.37665 1.53227 1.08657
H 8.29785 10.8368 6.19693
C 11.0534 11.486 8.03758
C 7.46543 0.421 2.86682
H 7.38564 0.0367293 3.85871
C 6.98553 8.09862 6.73984
C 10.1129 5.23177 2.75106
H 6.26783 8.78353 7.1654
H 9.5536 4.90045 3.58216
C 6.50187 6.90237 6.0813
C 9.4497 6.05758 1.74059
H 11.7912 6.19052 7.75132
H 8.49927 6.49766 1.96288
C 7.39972 5.91127 5.62653
C 10.0306 6.24729 0.459151
C 11.6153 1.54086 4.96704
C 8.19102 11.0181 9.81083
C 6.94245 4.51396 5.08879
C 9.26984 7.27411 9.59422
O 5.47586 11.0927 9.83372
C 6.04647 9.82176 0.251034
C 6.73867 9.77072 1.65618
H 5.22639 9.43712 0.757228
H 6.22179 9.08264 9.84033
C 6.47715 8.57443 2.57597
H 7.80422 9.67437 1.51706
H 6.4111 10.6026 2.28574
H 6.70254 7.64891 2.03856
H 7.14955 8.62836 3.46056
H 5.43259 8.58308 2.94689
O 11.9595 2.74173 0.308551
C 12.1154 3.12825 9.2466
C 11.1233 2.62629 8.19939
H 12.2205 4.19187 9.1156
H 0.633784 2.83078 8.94957
C 10.0793 3.5965 7.61723
H 10.6171 1.71534 8.56958
H 11.7792 2.40622 7.35758
H 9.04379 3.36887 7.90996
H 10.0179 3.44251 6.52674
H 10.2877 4.65108 7.85699
O -0.128915 8.45019 9.28038
C 0.222429 8.49707 0.477352
C 11.5118 8.38908 1.49424
H 0.727999 7.62281 0.771589
H 0.747771 9.37702 0.773054
C 10.5283 9.06589 2.49343
H 10.8109 8.43662 0.74675
H 11.7067 7.49003 2.09916
H 9.83282 9.70993 2.00143
H 9.88554 8.30118 2.97469
H 10.8763 9.63894 3.33894
O 7.37349 4.24342 1.54784
C 7.81017 4.00755 0.22685
C 9.0629 3.14454 0.217302
H 6.8583 3.54321 9.85279
H 7.78361 4.95775 9.97813
C 9.4593 2.45514 1.50813
H 8.75524 2.36899 9.72286
H 9.65234 3.77155 10.1707
H 9.72049 1.4209 1.30027
H 10.386 2.82529 1.86855
H 8.79418 2.58586 2.36005
O 11.7562 11.1824 9.24425
C 11.3473 11.6404 0.171362
C 11.7355 11.9331 1.67429
H 11.2119 10.6577 0.532587
H 10.2821 12.3241 10.2171
C 0.348559 11.2584 2.47515
H 10.8641 11.6846 2.2927
H 11.615 0.44478 1.95332
H 0.137111 10.2767 2.81708
H 0.588427 11.9059 3.33299
H 1.25307 10.9319 2.02993
O 5.0841 1.86041 0.677814
C 4.76049 2.34234 9.59086
C 3.51798 1.82861 8.88599
H 5.56097 2.10887 8.88827
H 4.74115 3.44108 9.58858
C 3.30063 2.46852 7.53109
H 2.65559 2.10601 9.45357
H 3.53562 0.731985 8.80134
H 4.25969 2.69979 7.03105
H 2.70376 1.77513 6.90393
H 2.73347 3.41898 7.63361
O 10.5839 7.53149 6.38575
C 11.0672 8.76996 5.9989
C -0.107091 8.75463 5.26443
H 11.3673 9.19533 6.95444
H 10.343 9.34952 5.39721
C 0.450648 10.153 5.29963
H 12.3434 8.31899 4.25368
H 0.649848 8.21073 5.77959
H 12.1885 10.8504 4.94212
H 1.37897 10.2057 4.70012
H 0.674475 10.4423 6.34295
O 0.741401 4.57896 1.23326
C 1.6654 5.40885 0.676827
C 2.73825 4.54483 0.26846
H 1.13065 5.85569 10.0197
H 1.95054 6.11387 1.45411
C 3.13019 3.51809 1.15885
H 3.01854 4.71165 9.60121
H 2.7915 3.33671 5.26404
H 5.02206 12.0641 1.85433
H 3.1105 9.44077 3.14341
H 1.53313 0.153701 5.45415
