102

Ni	2.8986	9.4112	8.5926
Ni	6.1753	3.1058	3.4848
O	1.4483	4.3542	3.9337
O	4.4416	8.1524	9.0546
O	4.6367	1.8473	3.8752
O	1.3650	10.6743	9.0030
O	5.8061	4.4603	4.9624
O	2.5424	8.0327	10.0675
O	0.2512	1.6926	4.9427
O	3.2372	10.8047	10.0626
N	3.6968	10.6606	7.2416
N	0.7126	1.8642	2.1170
N	2.1722	8.1441	7.2520
N	5.4402	4.3948	2.1375
C	3.4855	12.1483	5.3630
C	0.4749	0.3896	0.2292
H	2.8645	12.5181	4.5527
H	5.8697	0.0337	9.6938
C	4.7607	0.1474	5.6148
C	1.7433	12.3699	0.4741
C	5.5034	12.1502	6.6821
C	2.4985	0.3551	1.5400
H	0.2477	12.5084	6.9199
H	3.4916	12.5067	1.7734
C	2.4836	6.6337	5.4082
C	5.7280	5.9036	0.2867
H	3.1330	6.2729	4.6160
H	-0.1083	6.2667	9.7662
C	2.9276	7.6810	6.2307
C	6.1883	4.8676	1.1160
H	3.8999	8.1465	6.0889
C	2.9826	11.1359	6.1975
C	-0.0104	1.4055	1.0711
C	4.9364	11.1381	7.4751
C	1.9482	1.3719	2.3406
H	5.4856	10.7097	8.3094
H	2.5089	1.7921	3.1727
C	0.9457	7.6265	7.4730
C	4.2108	4.9046	2.3569
H	3.6361	4.4774	3.1753
C	0.4386	6.5758	6.6918
C	3.6876	5.9450	1.5694
H	5.7077	6.1769	6.9197
H	2.6982	6.3268	1.8007
C	1.2275	6.0647	5.6520
C	4.4634	6.4578	0.5203
C	5.3126	1.2438	4.7942
C	2.0502	11.2676	9.9216
C	0.7355	4.9402	4.8359
C	3.7317	7.5663	9.9569
C	1.5185	10.4677	5.9710
C	1.1753	9.3652	7.0201
H	1.8970	8.5202	6.9758
H	0.1675	8.9330	6.8319
H	1.1572	9.7760	8.0534
C	0.3985	11.5255	6.1559
H	0.4330	11.9269	7.1922
H	-0.6022	11.0667	6.0005
H	0.4429	12.4076	5.5107
C	1.4595	9.7244	4.6103
H	2.2125	8.9064	4.6001
H	1.6749	10.3164	3.7162
H	0.4574	9.2681	4.4570
C	-1.4644	2.0978	0.8506
C	-1.7885	3.1998	1.9065
H	-1.8114	2.7836	2.9375
H	-2.7897	3.6488	1.7224
H	-1.0537	4.0335	1.8656
C	-1.5138	2.8496	-0.5058
H	-0.7481	3.6558	-0.5128
H	-2.5089	3.3224	-0.6549
H	-1.3092	2.2593	-1.4036
C	-2.6006	1.0568	1.0315
H	-2.5707	0.6491	2.0655
H	-2.5710	0.1778	0.3814
H	-3.5942	1.5321	0.8803
C	0.0993	8.2917	8.6918
C	0.8642	9.4419	9.4170
H	1.0944	10.2803	8.7235
H	0.2539	9.8706	10.2427
H	1.8095	9.0780	9.8762
C	-0.1624	7.2492	9.8108
H	0.8072	6.8945	10.2233
H	-0.7411	7.7058	10.6431
H	-0.6949	6.3388	9.5209
C	-1.1880	8.9735	8.1575
H	-0.9127	9.7863	7.4505
H	-1.8856	8.3410	7.6012
H	-1.7652	9.4277	8.9921
C	7.6403	4.1671	0.9108
C	7.9339	3.0413	1.9503
H	7.9396	3.4364	2.9899
H	8.9349	2.5873	1.7771
H	7.1932	2.2150	1.8779
C	7.7107	3.4424	-0.4593
H	6.9387	2.6432	-0.4979
H	8.7047	2.9640	-0.5981
H	7.5291	4.0524	-1.3488
C	8.7812	5.1943	1.1355
H	8.7340	5.5813	2.1767
H	8.7721	6.0865	0.5029
H	9.7737	4.7135	0.9945
