90

Ni	2.8986	9.4112	8.5926
Ni	6.1753	3.1058	3.4848
O	1.4483	4.3542	3.9337
O	4.4416	8.1524	9.0546
O	4.6367	1.8473	3.8752
O	1.3650	10.6743	9.0030
O	5.8061	4.4603	4.9624
O	2.5424	8.0327	10.0675
O	0.2512	1.6926	4.9427
O	3.2372	10.8047	10.0626
N	3.6968	10.6606	7.2416
N	0.7126	1.8642	2.1170
N	2.1722	8.1441	7.2520
N	5.4402	4.3948	2.1375
C	3.4855	12.1483	5.3630
C	0.4749	0.3896	0.2292
H	2.8645	12.5181	4.5527
H	5.8697	0.0337	9.6938
C	4.7607	0.1474	5.6148
C	1.7433	12.3699	0.4741
C	5.5034	12.1502	6.6821
C	2.4985	0.3551	1.5400
H	0.2477	12.5084	6.9199
H	3.4916	12.5067	1.7734
C	2.4836	6.6337	5.4082
C	5.7280	5.9036	0.2867
H	3.1330	6.2729	4.6160
H	-0.1083	6.2667	9.7662
C	2.9276	7.6810	6.2307
C	6.1883	4.8676	1.1160
C	2.9826	11.1359	6.1975
C	-0.0104	1.4055	1.0711
C	4.9364	11.1381	7.4751
C	1.9482	1.3719	2.3406
H	5.4856	10.7097	8.3094
H	2.5089	1.7921	3.1727
C	0.9457	7.6265	7.4730
C	4.2108	4.9046	2.3569
H	0.3633	8.0518	8.2873
H	3.6361	4.4774	3.1753
C	0.4386	6.5758	6.6918
C	3.6876	5.9450	1.5694
H	5.7077	6.1769	6.9197
H	2.6982	6.3268	1.8007
C	1.2275	6.0647	5.6520
C	4.4634	6.4578	0.5203
C	5.3126	1.2438	4.7942
C	2.0502	11.2676	9.9216
C	0.7355	4.9402	4.8359
C	3.7317	7.5663	9.9569
C	1.5594	10.5529	5.8998
C	1.0702	9.4477	6.8517
H	1.5658	10.1260	4.8733
H	0.8241	11.3850	5.9537
C	-0.3234	8.9616	6.4613
H	1.0247	9.8395	7.8912
H	1.7660	8.5814	6.8114
H	-1.0523	9.7986	6.5084
H	-0.6505	8.1661	7.1636
H	-0.3132	8.5443	5.4318
C	-1.4249	2.0124	0.7789
C	-1.8952	3.1197	1.7378
H	-2.1731	1.1917	0.8294
H	-1.4135	2.4449	-0.2452
C	-3.2817	3.6297	1.3526
H	-1.1861	3.9752	1.7013
H	-1.9452	2.7228	2.7752
H	-3.2666	4.0527	0.3255
H	-3.5952	4.4262	2.0599
H	-4.0235	2.8040	1.3962
C	4.3297	8.3188	5.9496
C	4.7526	9.4612	6.8891
H	5.0984	7.5201	6.0335
H	4.3256	8.7260	4.9151
C	6.1319	9.9991	6.5161
H	4.0218	10.2962	6.8190
H	4.7941	9.0910	7.9367
H	6.1245	10.3966	5.4787
H	6.4111	10.8206	7.2090
H	6.8945	9.1950	6.5931
C	7.6030	4.2542	0.8401
C	8.0447	3.1238	1.7855
H	8.3569	5.0672	0.9221
H	7.6086	3.8426	-0.1926
C	9.4343	2.6095	1.4177
H	7.3293	2.2754	1.7175
H	8.0771	3.4993	2.8315
H	9.4364	2.2075	0.3821
H	9.7269	1.7963	2.1148
H	10.1820	3.4278	1.4928
