70

Ni	2.8986	9.4112	8.5926
Ni	6.1753	3.1058	3.4848
O	1.4483	4.3542	3.9337
O	4.4416	8.1524	9.0546
O	4.6367	1.8473	3.8752
O	1.3650	10.6743	9.0030
O	5.8061	4.4603	4.9624
O	2.5424	8.0327	10.0675
O	0.2512	1.6926	4.9427
O	3.2372	10.8047	10.0626
N	3.6968	10.6606	7.2416
N	0.7126	1.8642	2.1170
N	2.1722	8.1441	7.2520
N	5.4402	4.3948	2.1375
C	3.4855	12.1483	5.3630
C	0.4749	0.3896	0.2292
H	2.8645	12.5181	4.5527
H	5.8697	0.0337	9.6938
C	4.7607	0.1474	5.6148
C	1.7433	12.3699	0.4741
C	5.5034	12.1502	6.6821
C	2.4985	0.3551	1.5400
H	0.2477	12.5084	6.9199
H	3.4916	12.5067	1.7734
C	2.4836	6.6337	5.4082
C	5.7280	5.9036	0.2867
H	3.1330	6.2729	4.6160
H	-0.1083	6.2667	9.7662
C	2.9276	7.6810	6.2307
C	6.1883	4.8676	1.1160
H	3.8999	8.1465	6.0889
H	0.9159	4.4189	0.9763
C	2.9826	11.1359	6.1975
C	-0.0104	1.4055	1.0711
H	5.2609	1.8501	0.9235
C	4.9364	11.1381	7.4751
C	1.9482	1.3719	2.3406
H	5.4856	10.7097	8.3094
C	0.9457	7.6265	7.4730
C	4.2108	4.9046	2.3569
C	0.4386	6.5758	6.6918
C	3.6876	5.9450	1.5694
H	5.7077	6.1769	6.9197
H	2.6982	6.3268	1.8007
C	1.2275	6.0647	5.6520
C	4.4634	6.4578	0.5203
C	5.3126	1.2438	4.7942
C	2.0502	11.2676	9.9216
C	0.7355	4.9402	4.8359
C	3.7317	7.5663	9.9569
C	1.5733	10.5275	5.9394
C	1.0137	9.5578	6.6831
H	0.9630	10.8656	5.1284
H	1.4893	9.1028	7.5376
H	0.0229	9.1977	6.4231
C	2.7663	1.9665	3.5271
C	2.3249	2.9368	4.3457
H	3.7521	1.6172	3.7527
H	1.3554	3.4021	4.2616
H	2.9694	3.2866	5.1464
C	0.0958	8.2306	8.6299
C	0.4989	9.2340	9.4281
H	-0.8838	7.8612	8.8505
H	1.4569	9.7227	9.3455
H	-0.1669	9.5878	10.2095
C	3.3698	4.3031	3.5236
C	3.7843	3.3089	4.3274
H	2.3887	4.6670	3.7464
H	4.7454	2.8265	4.2436
H	3.1252	2.9563	5.1150
