90

Ni	2.8986	9.4112	8.5926
Ni	6.1753	3.1058	3.4848
O	1.4483	4.3542	3.9337
O	4.4416	8.1524	9.0546
O	4.6367	1.8473	3.8752
O	1.3650	10.6743	9.0030
O	5.8061	4.4603	4.9624
O	2.5424	8.0327	10.0675
O	0.2512	1.6926	4.9427
O	3.2372	10.8047	10.0626
N	3.6968	10.6606	7.2416
N	0.7126	1.8642	2.1170
N	2.1722	8.1441	7.2520
N	5.4402	4.3948	2.1375
C	3.4855	12.1483	5.3630
C	0.4749	0.3896	0.2292
C	4.7607	0.1474	5.6148
C	1.7433	12.3699	0.4741
C	5.5034	12.1502	6.6821
C	2.4985	0.3551	1.5400
H	0.2477	12.5084	6.9199
H	3.4916	12.5067	1.7734
C	2.4836	6.6337	5.4082
C	5.7280	5.9036	0.2867
H	-0.1083	6.2667	9.7662
C	2.9276	7.6810	6.2307
C	6.1883	4.8676	1.1160
H	3.8999	8.1465	6.0889
H	0.9159	4.4189	0.9763
C	2.9826	11.1359	6.1975
C	-0.0104	1.4055	1.0711
H	1.9939	10.7090	6.0470
H	5.2609	1.8501	0.9235
C	4.9364	11.1381	7.4751
C	1.9482	1.3719	2.3406
H	5.4856	10.7097	8.3094
H	2.5089	1.7921	3.1727
C	0.9457	7.6265	7.4730
C	4.2108	4.9046	2.3569
H	0.3633	8.0518	8.2873
H	3.6361	4.4774	3.1753
C	0.4386	6.5758	6.6918
C	3.6876	5.9450	1.5694
H	5.7077	6.1769	6.9197
C	1.2275	6.0647	5.6520
C	4.4634	6.4578	0.5203
C	5.3126	1.2438	4.7942
C	2.0502	11.2676	9.9216
C	0.7355	4.9402	4.8359
C	3.7317	7.5663	9.9569
C_fg	2.6321	12.6674	4.1886
C_fg	1.2468	12.0247	4.0020
H_fg	3.2040	12.4983	3.2503
H_fg	2.4733	13.7576	4.3378
C_fg	0.5145	12.6313	2.8076
H_fg	0.6292	12.1914	4.9114
H_fg	1.3594	10.9329	3.8246
H_fg	0.3663	13.7220	2.9579
H_fg	-0.4800	12.1499	2.6969
H_fg	1.0944	12.4672	1.8743
C_fg	-0.3900	-0.1102	-0.9449
C_fg	-1.7660	0.5542	-1.1235
H_fg	0.1813	0.0552	-1.8842
H_fg	-0.5647	-1.1987	-0.8009
C_fg	-2.5113	-0.0350	-2.3187
H_fg	-2.3832	0.3919	-0.2130
H_fg	-1.6376	1.6451	-1.2956
H_fg	-2.6754	-1.1241	-2.1736
H_fg	-3.4987	0.4619	-2.4236
H_fg	-1.9320	0.1253	-3.2530
C_fg	3.3763	6.1286	4.2585
C_fg	4.7364	6.8252	4.0808
H_fg	2.8133	6.2556	3.3083
H_fg	3.5779	5.0492	4.4318
C_fg	5.5128	6.2271	2.9102
H_fg	5.3454	6.7020	5.0028
H_fg	4.5813	7.9077	3.8800
H_fg	5.7039	5.1467	3.0845
H_fg	6.4881	6.7476	2.8055
H_fg	4.9420	6.3488	1.9650
C_fg	2.2834	6.5019	1.8670
C_fg	1.5206	5.8652	3.0416
H_fg	2.3863	7.5864	2.0888
H_fg	1.6616	6.3644	0.9558
C_fg	0.1490	6.5110	3.2224
H_fg	1.3728	4.7800	2.8501
H_fg	2.0971	6.0012	3.9825
H_fg	-0.4648	6.3783	2.3060
H_fg	-0.3781	6.0331	4.0749
H_fg	0.2573	7.5960	3.4350
