90

Ni	2.8986	9.4112	8.5926
Ni	6.1753	3.1058	3.4848
O	1.4483	4.3542	3.9337
O	4.4416	8.1524	9.0546
O	4.6367	1.8473	3.8752
O	1.3650	10.6743	9.0030
O	5.8061	4.4603	4.9624
O	2.5424	8.0327	10.0675
O	0.2512	1.6926	4.9427
O	3.2372	10.8047	10.0626
N	3.6968	10.6606	7.2416
N	0.7126	1.8642	2.1170
N	2.1722	8.1441	7.2520
N	5.4402	4.3948	2.1375
C	3.4855	12.1483	5.3630
C	0.4749	0.3896	0.2292
H	2.8645	12.5181	4.5527
H	5.8697	0.0337	9.6938
C	4.7607	0.1474	5.6148
C	1.7433	12.3699	0.4741
C	5.5034	12.1502	6.6821
C	2.4985	0.3551	1.5400
C	2.4836	6.6337	5.4082
C	5.7280	5.9036	0.2867
C	2.9276	7.6810	6.2307
C	6.1883	4.8676	1.1160
H	3.8999	8.1465	6.0889
H	0.9159	4.4189	0.9763
C	2.9826	11.1359	6.1975
C	-0.0104	1.4055	1.0711
H	1.9939	10.7090	6.0470
H	5.2609	1.8501	0.9235
C	4.9364	11.1381	7.4751
C	1.9482	1.3719	2.3406
H	5.4856	10.7097	8.3094
H	2.5089	1.7921	3.1727
C	0.9457	7.6265	7.4730
C	4.2108	4.9046	2.3569
H	0.3633	8.0518	8.2873
H	3.6361	4.4774	3.1753
C	0.4386	6.5758	6.6918
C	3.6876	5.9450	1.5694
H	5.7077	6.1769	6.9197
H	2.6982	6.3268	1.8007
C	1.2275	6.0647	5.6520
C	4.4634	6.4578	0.5203
C	5.3126	1.2438	4.7942
C	2.0502	11.2676	9.9216
C	0.7355	4.9402	4.8359
C	3.7317	7.5663	9.9569
C	6.9197	12.6679	6.9946
C	7.6441	12.0250	8.1898
H	6.8469	13.7581	7.1997
H	7.5510	12.4984	6.0953
C	9.0320	12.6309	8.3835
H	7.7613	10.9331	8.0158
H	7.0576	12.1920	9.1194
H	9.6556	12.4664	7.4789
H	9.5308	12.1493	9.2509
H	8.9540	13.7216	8.5793
C	3.9101	-0.1807	1.8426
C	4.6490	0.4492	3.0359
H	4.5383	-0.0156	0.9403
H	3.8253	-1.2707	2.0443
C	6.0305	-0.1741	3.2196
H	4.0657	0.2859	3.9683
H	4.7783	1.5402	2.8650
H	5.9405	-1.2645	3.4121
H	6.5400	0.2984	4.0857
H	6.6509	-0.0139	2.3121
C	3.3763	6.1286	4.2585
C	4.7364	6.8252	4.0808
H	2.8133	6.2556	3.3083
H	3.5779	5.0492	4.4318
C	5.5128	6.2271	2.9102
H	5.3454	6.7020	5.0028
H	4.5813	7.9077	3.8800
H	5.7039	5.1467	3.0845
H	6.4881	6.7476	2.8055
H	4.9420	6.3488	1.9650
C	6.6181	6.4147	-0.8650
C	7.9889	5.7371	-1.0339
H	6.0601	6.2732	-1.8161
H	6.8033	7.4981	-0.6982
C	8.7601	6.3389	-2.2061
H	8.5932	5.8752	-0.1109
H	7.8504	4.6511	-1.2281
H	8.9347	7.4231	-2.0384
H	9.7433	5.8321	-2.3044
H	8.1942	6.2026	-3.1522
