148

Ni	2.8986	9.4112	8.5926
Ni	6.1753	3.1058	3.4848
O	1.4483	4.3542	3.9337
O	4.4416	8.1524	9.0546
O	4.6367	1.8473	3.8752
O	1.3650	10.6743	9.0030
O	5.8061	4.4603	4.9624
O	2.5424	8.0327	10.0675
O	0.2512	1.6926	4.9427
O	3.2372	10.8047	10.0626
N	3.6968	10.6606	7.2416
N	0.7126	1.8642	2.1170
N	2.1722	8.1441	7.2520
N	5.4402	4.3948	2.1375
C	3.4855	12.1483	5.3630
C	0.4749	0.3896	0.2292
C	4.7607	0.1474	5.6148
C	1.7433	12.3699	0.4741
C	5.5034	12.1502	6.6821
C	2.4985	0.3551	1.5400
C	2.4836	6.6337	5.4082
C	5.7280	5.9036	0.2867
H	-0.1083	6.2667	9.7662
C	2.9276	7.6810	6.2307
C	6.1883	4.8676	1.1160
H	3.8999	8.1465	6.0889
H	0.9159	4.4189	0.9763
C	2.9826	11.1359	6.1975
C	-0.0104	1.4055	1.0711
H	1.9939	10.7090	6.0470
H	5.2609	1.8501	0.9235
C	4.9364	11.1381	7.4751
C	1.9482	1.3719	2.3406
H	5.4856	10.7097	8.3094
H	2.5089	1.7921	3.1727
C	0.9457	7.6265	7.4730
C	4.2108	4.9046	2.3569
H	0.3633	8.0518	8.2873
H	3.6361	4.4774	3.1753
C	0.4386	6.5758	6.6918
C	3.6876	5.9450	1.5694
H	5.7077	6.1769	6.9197
C	1.2275	6.0647	5.6520
C	4.4634	6.4578	0.5203
C	5.3126	1.2438	4.7942
C	2.0502	11.2676	9.9216
C	0.7355	4.9402	4.8359
C	3.7317	7.5663	9.9569
Ni	9.1514	9.4112	8.5926
Ni	12.4281	3.1058	3.4848
O	7.7011	4.3542	3.9337
O	10.6944	8.1524	9.0546
O	10.8895	1.8473	3.8752
O	7.6178	10.6743	9.0030
O	12.0589	4.4603	4.9624
O	8.7952	8.0327	10.0675
O	6.5040	1.6926	4.9427
O	9.4900	10.8047	10.0626
N	9.9496	10.6606	7.2416
N	6.9654	1.8642	2.1170
N	8.4250	8.1441	7.2520
N	11.6930	4.3948	2.1375
C	9.7383	12.1483	5.3630
C	6.7277	0.3896	0.2292
H	9.1173	12.5181	4.5527
H	12.1225	0.0337	9.6938
C	11.0135	0.1474	5.6148
C	7.9961	12.3699	0.4741
C	11.7562	12.1502	6.6821
C	8.7513	0.3551	1.5400
H	6.5005	12.5084	6.9199
H	9.7444	12.5067	1.7734
C	8.7364	6.6337	5.4082
C	11.9808	5.9036	0.2867
H	6.1445	6.2667	9.7662
C	9.1804	7.6810	6.2307
C	12.4411	4.8676	1.1160
H	10.1527	8.1465	6.0889
H	7.1687	4.4189	0.9763
C	9.2354	11.1359	6.1975
C	6.2424	1.4055	1.0711
H	8.2467	10.7090	6.0470
H	11.5137	1.8501	0.9235
C	11.1892	11.1381	7.4751
C	8.2010	1.3719	2.3406
H	11.7384	10.7097	8.3094
H	8.7617	1.7921	3.1727
C	7.1985	7.6265	7.4730
C	10.4636	4.9046	2.3569
H	6.6161	8.0518	8.2873
H	9.8889	4.4774	3.1753
C	6.6914	6.5758	6.6918
C	9.9404	5.9450	1.5694
H	11.9605	6.1769	6.9197
C	7.4803	6.0647	5.6520
C	10.7162	6.4578	0.5203
C	11.5654	1.2438	4.7942
C	8.3030	11.2676	9.9216
C	6.9883	4.9402	4.8359
C	9.9845	7.5663	9.9569
C	2.6242	12.6609	4.1975
N	1.3336	11.9847	4.0757
H	3.1797	12.5205	3.2440
H	2.4319	13.7438	4.3577
H	1.4964	10.9935	3.7820
H	0.7896	12.4445	3.3101
C	3.9083	-0.1687	1.8486
N	4.5324	0.4649	3.0091
H	3.8574	-1.2637	2.0379
H	4.5519	0.0242	0.9632
H	4.0182	0.1727	3.8724
H	5.5094	0.1032	3.0986
C	3.3803	6.1409	4.2625
N	4.6625	6.8383	4.1753
H	3.5851	5.0562	4.3999
H	2.8378	6.2967	3.3051
H	5.2443	6.5836	5.0071
H	5.1710	6.4923	3.3296
C	2.2849	6.4897	1.8728
N	1.6371	5.8477	3.0156
H	2.3541	7.5801	2.0819
H	1.6470	6.3244	0.9778
H	2.1476	6.1151	3.8891
H	0.6660	6.2260	3.1017
C	13.1675	12.6613	7.0053
N	13.7947	11.9849	8.1397
H	13.8193	12.5206	6.1150
H	13.0980	13.7443	7.2456
H	13.9984	10.9937	7.8731
H	14.7142	12.4443	8.3322
C	5.8551	-0.1037	-0.9359
N	4.5744	0.5925	-1.0499
H	6.4095	0.0334	-1.8905
H	5.6470	-1.1844	-0.7808
H	4.7511	1.5826	-1.3390
H	4.0210	0.1450	-1.8161
C	9.6331	6.1409	4.2625
N	10.9153	6.8383	4.1753
H	9.8379	5.0562	4.3999
H	9.0906	6.2967	3.3051
H	11.4971	6.5836	5.0071
H	11.4238	6.4923	3.3296
C	8.5377	6.4897	1.8728
N	7.8899	5.8477	3.0156
H	8.6069	7.5801	2.0819
H	7.8998	6.3244	0.9778
H	8.4004	6.1151	3.8891
H	6.9188	6.2260	3.1017
