94

Ni	2.8986	9.4112	8.5926
Ni	6.1753	3.1058	3.4848
O	1.4483	4.3542	3.9337
O	4.4416	8.1524	9.0546
O	4.6367	1.8473	3.8752
O	1.3650	10.6743	9.0030
O	5.8061	4.4603	4.9624
O	2.5424	8.0327	10.0675
O	0.2512	1.6926	4.9427
O	3.2372	10.8047	10.0626
N	3.6968	10.6606	7.2416
N	0.7126	1.8642	2.1170
N	2.1722	8.1441	7.2520
N	5.4402	4.3948	2.1375
C	3.4855	12.1483	5.3630
C	0.4749	0.3896	0.2292
H	2.8645	12.5181	4.5527
H	5.8697	0.0337	9.6938
C	4.7607	0.1474	5.6148
C	1.7433	12.3699	0.4741
C	5.5034	12.1502	6.6821
C	2.4985	0.3551	1.5400
H	0.2477	12.5084	6.9199
H	3.4916	12.5067	1.7734
C	2.4836	6.6337	5.4082
C	5.7280	5.9036	0.2867
H	3.1330	6.2729	4.6160
H	-0.1083	6.2667	9.7662
C	2.9276	7.6810	6.2307
C	6.1883	4.8676	1.1160
H	0.9159	4.4189	0.9763
C	2.9826	11.1359	6.1975
C	-0.0104	1.4055	1.0711
H	1.9939	10.7090	6.0470
C	4.9364	11.1381	7.4751
C	1.9482	1.3719	2.3406
H	2.5089	1.7921	3.1727
C	0.9457	7.6265	7.4730
C	4.2108	4.9046	2.3569
H	0.3633	8.0518	8.2873
C	0.4386	6.5758	6.6918
C	3.6876	5.9450	1.5694
H	5.7077	6.1769	6.9197
H	2.6982	6.3268	1.8007
C	1.2275	6.0647	5.6520
C	4.4634	6.4578	0.5203
C	5.3126	1.2438	4.7942
C	2.0502	11.2676	9.9216
C	0.7355	4.9402	4.8359
C	3.7317	7.5663	9.9569
O_fg	5.7138	10.6421	8.5233
C_fg	5.3183	9.6504	9.4001
C_fg	6.4411	9.3862	10.4015
H_fg	4.4067	9.9769	9.9480
H_fg	5.1020	8.7162	8.8358
C_fg	6.0520	8.2952	11.3948
H_fg	7.3560	9.0696	9.8548
H_fg	6.6655	10.3214	10.9593
H_fg	5.8424	7.3438	10.8609
H_fg	6.8864	8.1264	12.1077
H_fg	5.1502	8.5986	11.9681
O_fg	-1.2716	1.9238	0.7838
C_fg	-1.8995	2.9218	1.5038
C_fg	-3.2627	3.2123	0.8789
H_fg	-2.0409	2.5915	2.5567
H_fg	-1.2804	3.8460	1.4807
C_fg	-3.9982	4.3113	1.6403
H_fg	-3.1240	3.5328	-0.1766
H_fg	-3.8791	2.2871	0.8919
H_fg	-3.4094	5.2531	1.6236
H_fg	-4.9831	4.4992	1.1633
H_fg	-4.1663	4.0044	2.6947
O_fg	4.1787	8.2262	5.9540
C_fg	4.7666	9.2578	6.6603
C_fg	6.1328	9.5699	6.0527
H_fg	4.1237	10.1641	6.6038
H_fg	4.8975	8.9567	7.7233
C_fg	6.8249	10.7061	6.7999
H_fg	6.7732	8.6623	6.0990
H_fg	6.0049	9.8613	4.9874
H_fg	6.9819	10.4292	7.8643
H_fg	7.8130	10.9091	6.3359
H_fg	6.2117	11.6311	6.7499
O_fg	3.4008	4.4160	3.3832
C_fg	3.7516	3.4002	4.2513
C_fg	2.6038	3.1539	5.2287
H_fg	4.6623	3.6917	4.8202
H_fg	3.9508	2.4686	3.6765
C_fg	2.9432	2.0373	6.2116
H_fg	1.6901	2.8724	4.6613
H_fg	2.3966	4.0868	5.7969
H_fg	3.1349	1.0882	5.6669
H_fg	2.0917	1.8822	6.9072
H_fg	3.8431	2.3056	6.8053
