204

Ni	2.8986	9.4112	8.5926
Ni	6.1753	3.1058	3.4848
O	1.4483	4.3542	3.9337
O	4.4416	8.1524	9.0546
O	4.6367	1.8473	3.8752
O	1.3650	10.6743	9.0030
O	5.8061	4.4603	4.9624
O	2.5424	8.0327	10.0675
O	0.2512	1.6926	4.9427
O	3.2372	10.8047	10.0626
N	3.6968	10.6606	7.2416
N	0.7126	1.8642	2.1170
N	2.1722	8.1441	7.2520
N	5.4402	4.3948	2.1375
C	3.4855	12.1483	5.3630
C	0.4749	0.3896	0.2292
C	4.7607	0.1474	5.6148
C	1.7433	12.3699	0.4741
C	5.5034	12.1502	6.6821
C	2.4985	0.3551	1.5400
H	0.2477	12.5084	6.9199
C	2.4836	6.6337	5.4082
C	5.7280	5.9036	0.2867
H	3.1330	6.2729	4.6160
C	2.9276	7.6810	6.2307
C	6.1883	4.8676	1.1160
H	3.8999	8.1465	6.0889
H	0.9159	4.4189	0.9763
C	2.9826	11.1359	6.1975
C	-0.0104	1.4055	1.0711
H	1.9939	10.7090	6.0470
H	5.2609	1.8501	0.9235
C	4.9364	11.1381	7.4751
C	1.9482	1.3719	2.3406
H	5.4856	10.7097	8.3094
H	2.5089	1.7921	3.1727
C	0.9457	7.6265	7.4730
C	4.2108	4.9046	2.3569
H	0.3633	8.0518	8.2873
H	3.6361	4.4774	3.1753
C	0.4386	6.5758	6.6918
C	3.6876	5.9450	1.5694
H	2.6982	6.3268	1.8007
C	1.2275	6.0647	5.6520
C	4.4634	6.4578	0.5203
C	5.3126	1.2438	4.7942
C	2.0502	11.2676	9.9216
C	0.7355	4.9402	4.8359
C	3.7317	7.5663	9.9569
Ni	9.1514	9.4112	8.5926
Ni	12.4281	3.1058	3.4848
O	7.7011	4.3542	3.9337
O	10.6944	8.1524	9.0546
O	10.8895	1.8473	3.8752
O	7.6178	10.6743	9.0030
O	12.0589	4.4603	4.9624
O	8.7952	8.0327	10.0675
O	6.5040	1.6926	4.9427
O	9.4900	10.8047	10.0626
N	9.9496	10.6606	7.2416
N	6.9654	1.8642	2.1170
N	8.4250	8.1441	7.2520
N	11.6930	4.3948	2.1375
C	9.7383	12.1483	5.3630
C	6.7277	0.3896	0.2292
H	12.1225	0.0337	9.6938
C	11.0135	0.1474	5.6148
C	7.9961	12.3699	0.4741
C	11.7562	12.1502	6.6821
C	8.7513	0.3551	1.5400
H	6.5005	12.5084	6.9199
H	9.7444	12.5067	1.7734
C	8.7364	6.6337	5.4082
C	11.9808	5.9036	0.2867
H	9.3858	6.2729	4.6160
C	9.1804	7.6810	6.2307
C	12.4411	4.8676	1.1160
H	10.1527	8.1465	6.0889
H	7.1687	4.4189	0.9763
C	9.2354	11.1359	6.1975
C	6.2424	1.4055	1.0711
H	8.2467	10.7090	6.0470
H	11.5137	1.8501	0.9235
C	11.1892	11.1381	7.4751
C	8.2010	1.3719	2.3406
H	11.7384	10.7097	8.3094
H	8.7617	1.7921	3.1727
C	7.1985	7.6265	7.4730
C	10.4636	4.9046	2.3569
H	6.6161	8.0518	8.2873
H	9.8889	4.4774	3.1753
C	6.6914	6.5758	6.6918
C	9.9404	5.9450	1.5694
H	8.9510	6.3268	1.8007
C	7.4803	6.0647	5.6520
C	10.7162	6.4578	0.5203
C	11.5654	1.2438	4.7942
C	8.3030	11.2676	9.9216
C	6.9883	4.9402	4.8359
C	9.9845	7.5663	9.9569
C	2.5252	12.6206	4.1711
C	1.1582	11.8702	4.1215
H	1.2970	10.7780	3.9652
H	0.5313	12.2352	3.2778
H	0.5683	12.0340	5.0500
C	2.1311	14.1101	4.3534
H	1.5667	14.2322	5.3036
H	1.4750	14.4458	3.5210
H	2.9503	14.8318	4.4180
C	3.1763	12.3085	2.7977
H	3.3195	11.2108	2.6944
H	4.1639	12.7401	2.6116
H	2.5188	12.6467	1.9674
C	3.9699	-0.1349	1.9333
C	4.5774	0.6040	3.1659
H	4.6767	1.6959	2.9795
H	5.5984	0.2264	3.3960
H	3.9655	0.4440	4.0806
C	3.9455	-1.6258	2.3623
H	3.3039	-1.7437	3.2626
H	4.9683	-1.9743	2.6238
H	3.5464	-2.3404	1.6368
C	4.9656	0.1697	0.7830
H	5.0147	1.2676	0.6141
H	4.7308	-0.2556	-0.1969
H	5.9870	-0.1813	1.0467
C	-1.0236	6.0517	7.0725
C	-1.6737	6.8024	8.2758
H	-1.8020	7.8859	8.0603
H	-2.6869	6.4002	8.4987
H	-1.0732	6.6835	9.2042
C	-0.9626	4.5732	7.5394
H	-0.3334	4.4970	8.4528
H	-1.9791	4.2009	7.7928
H	-0.5303	3.8532	6.8388
C	-2.0080	6.2977	5.8987
H	-2.0865	7.3891	5.7013
H	-1.7440	5.8555	4.9338
H	-3.0230	5.9230	6.1543
C	6.7240	6.3652	-0.8811
C	8.0710	5.5787	-0.9149
H	8.6471	5.7144	0.0266
H	8.7236	5.9372	-1.7417
H	7.9058	4.4927	-1.0884
C	6.0913	6.0887	-2.2706
H	5.9205	4.9967	-2.3913
H	6.7735	6.4196	-3.0838
H	5.1194	6.5493	-2.4695
C	7.1545	7.8410	-0.6714
H	7.7036	7.9354	0.2908
H	6.3540	8.5839	-0.6127
H	7.8353	8.1694	-1.4867
C	8.7780	12.6206	4.1711
C	7.4110	11.8702	4.1215
H	7.5498	10.7780	3.9652
H	6.7841	12.2352	3.2778
H	6.8211	12.0340	5.0500
C	8.3839	14.1101	4.3534
H	7.8195	14.2322	5.3036
H	7.7278	14.4458	3.5210
H	9.2031	14.8318	4.4180
C	9.4291	12.3085	2.7977
H	9.5723	11.2108	2.6944
H	10.4167	12.7401	2.6116
H	8.7716	12.6467	1.9674
C	5.7566	-0.0617	-0.9618
C	4.4009	0.7093	-1.0029
H	4.5556	1.8002	-1.1539
H	3.7658	0.3583	-1.8464
H	3.8116	0.5494	-0.0734
C	5.3407	-1.5461	-0.7860
H	4.7776	-1.6648	0.1654
H	4.6770	-1.8675	-1.6180
H	6.1492	-2.2804	-0.7280
C	6.4078	0.2478	-2.3357
H	6.5672	1.3438	-2.4337
H	7.3882	-0.1976	-2.5274
H	5.7426	-0.0761	-3.1656
C	5.2292	6.0517	7.0725
C	4.5790	6.8025	8.2757
H	5.1795	6.6837	9.2042
H	3.5658	6.4004	8.4986
H	4.4508	7.8859	8.0602
C	4.2448	6.2977	5.8986
H	4.1663	7.3890	5.7011
H	3.2298	5.9230	6.1543
H	4.5089	5.8553	4.9338
C	5.2901	4.5733	7.5394
H	5.9194	4.4971	8.4529
H	5.7226	3.8532	6.8389
H	4.2737	4.2009	7.7928
C	12.9768	6.3652	-0.8811
C	14.3238	5.5787	-0.9149
H	14.8999	5.7144	0.0266
H	14.9764	5.9372	-1.7417
H	14.1586	4.4927	-1.0884
C	12.3441	6.0887	-2.2706
H	12.1733	4.9967	-2.3913
H	13.0263	6.4196	-3.0838
H	11.3722	6.5493	-2.4695
C	13.4073	7.8410	-0.6714
H	13.9564	7.9354	0.2908
H	12.6068	8.5839	-0.6127
H	14.0881	8.1694	-1.4867
