86

Ni	2.8986	9.4112	8.5926
Ni	6.1753	3.1058	3.4848
O	1.4483	4.3542	3.9337
O	4.4416	8.1524	9.0546
O	4.6367	1.8473	3.8752
O	1.3650	10.6743	9.0030
O	5.8061	4.4603	4.9624
O	2.5424	8.0327	10.0675
O	0.2512	1.6926	4.9427
O	3.2372	10.8047	10.0626
N	3.6968	10.6606	7.2416
N	0.7126	1.8642	2.1170
N	2.1722	8.1441	7.2520
N	5.4402	4.3948	2.1375
C	3.4855	12.1483	5.3630
C	0.4749	0.3896	0.2292
H	2.8645	12.5181	4.5527
H	5.8697	0.0337	9.6938
C	4.7607	0.1474	5.6148
C	1.7433	12.3699	0.4741
C	5.5034	12.1502	6.6821
C	2.4985	0.3551	1.5400
H	0.2477	12.5084	6.9199
H	3.4916	12.5067	1.7734
C	2.4836	6.6337	5.4082
C	5.7280	5.9036	0.2867
H	3.1330	6.2729	4.6160
H	-0.1083	6.2667	9.7662
C	2.9276	7.6810	6.2307
C	6.1883	4.8676	1.1160
C	2.9826	11.1359	6.1975
C	-0.0104	1.4055	1.0711
H	1.9939	10.7090	6.0470
H	5.2609	1.8501	0.9235
C	4.9364	11.1381	7.4751
C	1.9482	1.3719	2.3406
C	0.9457	7.6265	7.4730
C	4.2108	4.9046	2.3569
H	0.3633	8.0518	8.2873
H	3.6361	4.4774	3.1753
C	0.4386	6.5758	6.6918
C	3.6876	5.9450	1.5694
H	5.7077	6.1769	6.9197
H	2.6982	6.3268	1.8007
C	1.2275	6.0647	5.6520
C	4.4634	6.4578	0.5203
C	5.3126	1.2438	4.7942
C	2.0502	11.2676	9.9216
C	0.7355	4.9402	4.8359
C	3.7317	7.5663	9.9569
P_fg	5.9397	10.4041	8.9270
C_fg	4.7098	9.3031	9.8075
H_fg	4.4893	8.4115	9.1851
H_fg	3.7715	9.8516	10.0336
H_fg	5.1528	8.9634	10.7661
C_fg	5.7703	11.8477	10.1017
H_fg	6.3381	12.7226	9.7292
H_fg	6.1729	11.5597	11.0945
H_fg	4.7041	12.1362	10.2084
P_fg	2.9667	2.0834	3.7929
C_fg	1.9448	3.5342	4.3853
H_fg	1.0250	3.1678	4.8858
H_fg	1.6785	4.2068	3.5433
H_fg	2.5383	4.1162	5.1199
C_fg	4.1648	3.1008	2.7821
H_fg	4.8447	2.4439	2.2052
H_fg	4.7732	3.7312	3.4628
H_fg	3.6151	3.7531	2.0724
P_fg	4.6330	8.4773	5.9180
C_fg	4.6624	9.9433	7.0800
H_fg	4.7444	9.5910	8.1288
H_fg	3.7537	10.5692	6.9580
H_fg	5.5485	10.5689	6.8476
C_fg	4.1741	9.4575	4.3944
H_fg	3.9735	8.7809	3.5409
H_fg	5.0152	10.1289	4.1253
H_fg	3.2662	10.0662	4.5855
P_fg	7.9056	4.0953	0.8044
C_fg	8.1611	2.9655	2.2737
H_fg	7.4815	2.0917	2.1996
H_fg	7.9864	3.5045	3.2283
H_fg	9.2083	2.5996	2.2684
C_fg	8.9366	5.5038	1.4721
H_fg	8.8587	6.3907	0.8135
H_fg	9.9992	5.1883	1.5186
H_fg	8.5934	5.7858	2.4889
