86

Ni	2.8986	9.4112	8.5926
Ni	6.1753	3.1058	3.4848
O	1.4483	4.3542	3.9337
O	4.4416	8.1524	9.0546
O	4.6367	1.8473	3.8752
O	1.3650	10.6743	9.0030
O	5.8061	4.4603	4.9624
O	2.5424	8.0327	10.0675
O	0.2512	1.6926	4.9427
O	3.2372	10.8047	10.0626
N	3.6968	10.6606	7.2416
N	0.7126	1.8642	2.1170
N	2.1722	8.1441	7.2520
N	5.4402	4.3948	2.1375
C	3.4855	12.1483	5.3630
C	0.4749	0.3896	0.2292
C	4.7607	0.1474	5.6148
C	1.7433	12.3699	0.4741
C	5.5034	12.1502	6.6821
C	2.4985	0.3551	1.5400
H	0.2477	12.5084	6.9199
H	3.4916	12.5067	1.7734
C	2.4836	6.6337	5.4082
C	5.7280	5.9036	0.2867
H	3.1330	6.2729	4.6160
H	-0.1083	6.2667	9.7662
C	2.9276	7.6810	6.2307
C	6.1883	4.8676	1.1160
H	3.8999	8.1465	6.0889
H	0.9159	4.4189	0.9763
C	2.9826	11.1359	6.1975
C	-0.0104	1.4055	1.0711
H	1.9939	10.7090	6.0470
H	5.2609	1.8501	0.9235
C	4.9364	11.1381	7.4751
C	1.9482	1.3719	2.3406
H	5.4856	10.7097	8.3094
H	2.5089	1.7921	3.1727
C	0.9457	7.6265	7.4730
C	4.2108	4.9046	2.3569
H	0.3633	8.0518	8.2873
H	3.6361	4.4774	3.1753
C	0.4386	6.5758	6.6918
C	3.6876	5.9450	1.5694
C	1.2275	6.0647	5.6520
C	4.4634	6.4578	0.5203
C	5.3126	1.2438	4.7942
C	2.0502	11.2676	9.9216
C	0.7355	4.9402	4.8359
C	3.7317	7.5663	9.9569
N_fg	2.6113	12.6291	4.2987
C_fg	1.7674	11.7121	3.5488
H_fg	1.9743	10.6500	3.7946
H_fg	1.9601	11.8371	2.4625
H_fg	0.6971	11.9280	3.7533
C_fg	2.4211	14.0517	4.0644
H_fg	3.0192	14.6751	4.7606
H_fg	1.3568	14.3152	4.2400
H_fg	2.6669	14.3049	3.0113
N_fg	-0.4099	-0.0723	-0.8345
C_fg	-1.2423	0.8613	-1.5768
H_fg	-1.0186	1.9188	-1.3261
H_fg	-1.0550	0.7392	-2.6643
H_fg	-2.3151	0.6605	-1.3698
C_fg	-0.6222	-1.4906	-1.0757
H_fg	-0.0312	-2.1266	-0.3848
H_fg	-1.6898	-1.7390	-0.8979
H_fg	-0.3837	-1.7418	-2.1310
N_fg	-0.9098	6.1122	6.9879
C_fg	-1.3828	6.0072	8.3593
H_fg	-0.5763	6.1874	9.0997
H_fg	-1.7660	4.9810	8.5404
H_fg	-2.2030	6.7356	8.5346
C_fg	-1.8851	5.9039	5.9295
H_fg	-1.4661	6.1188	4.9248
H_fg	-2.7377	6.6011	6.0715
H_fg	-2.2809	4.8669	5.9689
N_fg	2.3357	6.3957	1.8714
C_fg	1.8705	6.5057	3.2451
H_fg	2.6838	6.3400	3.9815
H_fg	1.4771	7.5290	3.4211
H_fg	1.0596	5.7696	3.4312
C_fg	1.3513	6.5852	0.8180
H_fg	1.7661	6.3674	-0.1878
H_fg	0.5074	5.8798	0.9707
H_fg	0.9442	7.6180	0.8523
