82

Ni	2.8986	9.4112	8.5926
Ni	6.1753	3.1058	3.4848
O	1.4483	4.3542	3.9337
O	4.4416	8.1524	9.0546
O	4.6367	1.8473	3.8752
O	1.3650	10.6743	9.0030
O	5.8061	4.4603	4.9624
O	2.5424	8.0327	10.0675
O	0.2512	1.6926	4.9427
O	3.2372	10.8047	10.0626
N	3.6968	10.6606	7.2416
N	0.7126	1.8642	2.1170
N	2.1722	8.1441	7.2520
N	5.4402	4.3948	2.1375
C	3.4855	12.1483	5.3630
C	0.4749	0.3896	0.2292
H	2.8645	12.5181	4.5527
H	5.8697	0.0337	9.6938
C	4.7607	0.1474	5.6148
C	1.7433	12.3699	0.4741
C	5.5034	12.1502	6.6821
C	2.4985	0.3551	1.5400
H	0.2477	12.5084	6.9199
H	3.4916	12.5067	1.7734
C	2.4836	6.6337	5.4082
C	5.7280	5.9036	0.2867
H	3.1330	6.2729	4.6160
H	-0.1083	6.2667	9.7662
C	2.9276	7.6810	6.2307
C	6.1883	4.8676	1.1160
H	0.9159	4.4189	0.9763
C	2.9826	11.1359	6.1975
C	-0.0104	1.4055	1.0711
H	5.2609	1.8501	0.9235
C	4.9364	11.1381	7.4751
C	1.9482	1.3719	2.3406
H	5.4856	10.7097	8.3094
C	0.9457	7.6265	7.4730
C	4.2108	4.9046	2.3569
H	0.3633	8.0518	8.2873
C	0.4386	6.5758	6.6918
C	3.6876	5.9450	1.5694
H	5.7077	6.1769	6.9197
H	2.6982	6.3268	1.8007
C	1.2275	6.0647	5.6520
C	4.4634	6.4578	0.5203
C	5.3126	1.2438	4.7942
C	2.0502	11.2676	9.9216
C	0.7355	4.9402	4.8359
C	3.7317	7.5663	9.9569
O	1.7140	10.6390	5.9056
C	1.0700	9.6469	6.6194
C	-0.2914	9.3789	5.9972
H	0.9265	9.9700	7.6737
H	1.6687	8.7103	6.5925
H	-0.9087	10.3021	6.0199
H	-0.8140	8.5819	6.5670
H	-0.1699	9.0483	4.9437
O	2.7385	1.8555	3.3847
C	2.3598	2.8488	4.2669
C	3.4846	3.0995	5.2591
H	1.4509	2.5345	4.8251
H	2.1526	3.7902	3.7125
H	3.7035	2.1714	5.8289
H	3.1859	3.8975	5.9712
H	4.4018	3.4212	4.7214
O	4.1787	8.2263	5.9541
C	4.7659	9.2580	6.6608
C	6.1267	9.5724	6.0595
H	4.9020	8.9609	7.7236
H	4.1287	10.1676	6.6044
H	6.7820	8.6770	6.1117
H	6.6038	10.4014	6.6236
H	6.0123	9.8781	4.9977
O	3.4009	4.4159	3.3833
C	3.7525	3.4001	4.2511
C	2.6126	3.1512	5.2263
H	3.9495	2.4655	3.6817
H	4.6604	3.6882	4.8248
H	1.6959	2.8555	4.6729
H	2.8895	2.3353	5.9268
H	2.4035	4.0724	5.8107
