90

Ni	2.8986	9.4112	8.5926
Ni	6.1753	3.1058	3.4848
O	1.4483	4.3542	3.9337
O	4.4416	8.1524	9.0546
O	4.6367	1.8473	3.8752
O	1.3650	10.6743	9.0030
O	5.8061	4.4603	4.9624
O	2.5424	8.0327	10.0675
O	0.2512	1.6926	4.9427
O	3.2372	10.8047	10.0626
N	3.6968	10.6606	7.2416
N	0.7126	1.8642	2.1170
N	2.1722	8.1441	7.2520
N	5.4402	4.3948	2.1375
C	3.4855	12.1483	5.3630
C	0.4749	0.3896	0.2292
H	2.8645	12.5181	4.5527
H	5.8697	0.0337	9.6938
C	4.7607	0.1474	5.6148
C	1.7433	12.3699	0.4741
C	5.5034	12.1502	6.6821
C	2.4985	0.3551	1.5400
H	0.2477	12.5084	6.9199
H	3.4916	12.5067	1.7734
C	2.4836	6.6337	5.4082
C	5.7280	5.9036	0.2867
H	3.1330	6.2729	4.6160
H	-0.1083	6.2667	9.7662
C	2.9276	7.6810	6.2307
C	6.1883	4.8676	1.1160
H	3.8999	8.1465	6.0889
H	0.9159	4.4189	0.9763
C	2.9826	11.1359	6.1975
C	-0.0104	1.4055	1.0711
H	5.2609	1.8501	0.9235
C	4.9364	11.1381	7.4751
C	1.9482	1.3719	2.3406
H	5.4856	10.7097	8.3094
C	0.9457	7.6265	7.4730
C	4.2108	4.9046	2.3569
C	0.4386	6.5758	6.6918
C	3.6876	5.9450	1.5694
H	5.7077	6.1769	6.9197
H	2.6982	6.3268	1.8007
C	1.2275	6.0647	5.6520
C	4.4634	6.4578	0.5203
C	5.3126	1.2438	4.7942
C	2.0502	11.2676	9.9216
C	0.7355	4.9402	4.8359
C	3.7317	7.5663	9.9569
C	1.5594	10.5529	5.8998
C	1.0702	9.4477	6.8517
H	1.5658	10.1260	4.8733
H	0.8241	11.3850	5.9537
C	-0.3234	8.9616	6.4613
H	1.0247	9.8395	7.8912
H	1.7660	8.5814	6.8114
H	-1.0523	9.7986	6.5084
H	-0.6505	8.1661	7.1636
H	-0.3132	8.5443	5.4318
C	2.8076	1.9402	3.5239
C	2.1499	3.0502	4.3619
H	3.0471	1.1026	4.2146
H	3.7481	2.3574	3.1027
C	3.0785	3.5208	5.4786
H	1.9145	3.9219	3.7131
H	1.2138	2.6678	4.8243
H	4.0200	3.9286	5.0527
H	2.5792	4.3201	6.0659
H	3.3214	2.6782	6.1606
C	0.0552	8.2032	8.6268
C	0.6705	9.3525	9.4437
H	-0.8895	8.5835	8.1807
H	-0.1725	7.3782	9.3365
C	-0.2872	9.8279	10.5335
H	1.6091	9.0080	9.9299
H	0.8927	10.2125	8.7749
H	-0.5182	8.9977	11.2346
H	0.1817	10.6558	11.1060
H	-1.2325	10.1986	10.0830
C	3.3288	4.3298	3.5202
C	3.9578	3.1934	4.3446
H	3.0963	5.1588	4.2236
H	2.3859	3.9370	3.0813
C	3.0088	2.7188	5.4424
H	4.1852	2.3297	3.6824
H	4.8952	3.5507	4.8240
H	2.0651	2.3356	4.9989
H	3.4876	1.9003	6.0202
H	2.7730	3.5530	6.1371
