180

Ni	2.1927	9.1138	8.5745
Ni	5.9852	3.7948	3.6856
O	-0.3191	4.6154	3.5771
O	3.5567	8.0339	8.6127
O	4.4414	2.9082	3.7787
O	0.7859	10.2070	8.6957
O	5.5678	5.1273	4.8482
O	1.7983	8.0632	9.9099
O	-1.1833	2.4207	4.9436
O	2.6894	10.3649	9.7937
N	3.0208	10.1877	7.2540
N	-1.0111	2.3090	2.2268
N	1.3259	7.8540	7.3063
N	5.3364	4.9066	2.2783
C	2.9407	0.8622	5.3739
C	-0.1386	2.0473	10.0152
H	2.4477	1.1898	4.4701
H	6.8818	1.6339	9.1298
C	4.1630	1.4432	5.7671
C	1.0124	1.1165	0.5402
C	4.6742	1.1065	7.0056
C	1.0206	0.9241	1.9080
H	-1.8235	1.0908	7.3766
H	1.7091	11.0443	2.3380
C	1.1468	6.7738	5.1279
C	4.8478	5.8315	10.0682
H	1.5946	6.5374	4.1770
H	12.9554	5.8434	9.2007
C	1.8471	7.6085	6.0558
C	5.9292	5.3207	1.1040
H	2.8191	7.9984	5.7890
H	-1.3244	4.9570	0.9328
C	2.3323	10.7188	6.1946
C	-1.0461	2.4684	0.8398
H	1.3290	10.3803	5.9741
H	5.5198	2.6883	0.7748
C	4.2707	10.7493	7.6174
C	-0.0195	1.4455	2.7146
H	-0.1116	0.9980	3.6835
C	0.1766	7.1239	7.6759
C	4.0751	5.3757	2.5814
H	3.6109	5.1224	3.5216
C	-0.6456	6.5710	6.6920
C	3.4100	6.2518	1.7608
H	6.2739	6.6060	7.1095
H	2.5803	6.8170	2.1452
C	-0.1226	6.2483	5.4626
C	3.8488	6.4363	0.4806
C	4.9598	2.3091	4.8387
C	1.4699	10.9358	9.5836
C	-0.8879	5.3017	4.5654
C	2.9492	7.4291	9.6005
Ni	10.1171	9.2036	8.6719
Ni	-1.7541	3.5617	3.6268
O	7.4884	4.6998	3.8148
O	11.4589	8.1193	8.8866
O	12.9971	2.5240	3.8747
O	8.7021	10.3035	8.6548
O	14.0251	4.7443	4.8973
O	9.5003	7.9612	9.8823
O	6.2153	2.7516	5.0753
O	10.3823	10.3422	10.0405
N	11.1751	10.4026	7.5667
N	6.7843	2.3918	2.4672
N	9.3691	8.0801	7.1893
N	13.3029	4.7361	2.4087
C	11.6480	11.3243	5.3919
C	7.3570	1.6472	0.1952
H	11.3505	11.3837	4.3518
H	-0.1433	2.2519	8.9503
C	12.8928	0.9943	5.7822
C	8.5831	1.0585	0.6283
C	13.2806	11.6283	7.0929
C	8.9074	1.2344	1.9591
H	5.5092	1.6580	7.3992
H	9.8457	11.6730	2.3274
C	8.8131	7.1430	4.9819
C	12.8878	5.7866	0.2698
H	9.0336	7.0629	3.9337
H	5.2219	5.9714	9.0644
C	9.7704	7.7562	5.8741
C	13.7726	5.1796	1.2152
C	10.7515	10.7616	6.3341
C	6.4590	2.2913	1.1316
H	9.7799	10.4421	6.0085
C	12.4844	10.8085	7.9810
C	7.9166	1.6619	2.8864
C	8.0738	7.7179	7.5410
C	12.0055	5.1993	2.7992
H	7.6699	8.0537	8.4742
C	7.2319	6.9309	6.7290
C	11.3491	6.2145	2.0218
H	-1.5834	6.1232	6.9905
H	10.4548	6.6843	2.3858
C	7.6047	6.6036	5.4505
C	11.6934	6.3983	0.6931
C	13.6599	1.8787	4.8043
C	9.2133	10.9533	9.6925
C	6.8633	5.5259	4.6574
C	10.7590	7.4092	9.7427
C	5.4244	9.9242	8.3111
C	5.4152	9.2797	9.7705
H	6.3475	10.5121	8.2604
H	5.6291	9.1069	7.5900
C	6.6398	9.5504	0.8956
H	5.6233	8.2172	9.5870
H	4.7116	9.3442	0.3489
H	7.6664	9.3980	0.5587
H	6.5007	8.7874	1.6941
H	6.4213	10.4960	1.4092
C	13.5399	2.5839	10.0395
C	12.3931	2.3736	0.7102
H	13.5816	3.4564	9.3594
H	13.5848	1.7819	9.3310
C	11.0660	2.8436	9.7529
H	12.2262	1.3239	0.9277
H	12.2641	2.8420	1.6682
H	10.9101	2.1129	8.9376
H	10.3718	2.9560	0.3753
H	11.2797	3.8211	9.2858
C	0.0005	6.4931	9.0490
C	-0.6696	7.4584	10.0381
H	0.9163	5.9890	9.4042
H	-0.6640	5.6062	8.9709
C	-0.0903	7.2102	1.5426
H	-1.7305	7.4158	9.8750
H	-0.4497	8.4990	9.7780
H	0.4397	6.2472	1.6788
H	-0.9998	7.1858	2.1705
H	0.5421	8.0319	1.9387
C	7.3497	5.8408	1.0994
C	8.3733	4.8354	0.6000
H	7.6393	6.2466	2.0823
H	7.4211	6.7277	0.4393
C	7.9625	4.4637	9.1061
H	8.4139	3.9611	1.2610
H	9.3627	5.2883	0.6807
H	6.9083	4.2264	8.8596
H	8.5828	3.5882	8.8612
H	8.3231	5.2837	8.4697
C	13.3441	10.0135	9.0429
C	13.2475	9.6972	0.5939
H	-1.7733	10.5106	9.0709
H	13.6390	9.0662	8.5612
C	-1.7792	10.0337	1.6009
H	13.0769	8.6273	0.7259
H	12.4025	10.1309	1.0794
H	-1.7271	9.2632	2.3882
H	14.0321	10.9502	2.1355
H	-0.7914	10.1163	1.1390
C	7.9956	1.0306	4.2462
C	8.6938	1.9804	5.2301
H	7.0073	11.4870	4.5695
H	8.5918	10.9323	4.1882
C	8.2849	1.7450	6.6841
H	9.7706	1.9766	5.0899
H	8.4856	3.0144	4.9776
H	7.6282	2.5639	7.0302
H	7.7467	11.6229	6.7966
H	9.1660	1.7436	7.3476
C	11.1119	8.0949	5.2314
C	12.4493	8.0456	5.9633
H	11.2607	7.3426	4.4420
H	10.9923	8.9849	4.5924
C	13.5799	8.4710	5.0212
H	12.4742	8.6978	6.7873
H	12.6487	7.0800	6.4361
H	13.2966	9.3677	4.4375
H	-1.6186	8.7470	5.5961
H	13.8037	7.6572	4.3039
C	11.0824	4.4291	3.7991
C	11.4245	4.5494	5.3098
H	10.9211	3.3815	3.4872
H	10.0571	4.8320	3.6872
C	10.3010	4.5736	6.3411
H	11.9495	5.4800	5.4273
H	12.0754	3.7345	5.6489
H	10.2908	3.6269	6.9085
H	9.3186	4.7362	5.8960
H	10.4863	5.3703	7.0923
