180

Ni	2.9283	9.4883	8.5968
Ni	6.4052	3.3372	3.7592
O	1.4943	4.1467	3.6249
O	4.5100	8.5495	8.8683
O	4.8560	2.3982	3.8609
O	1.3508	10.4095	8.7478
O	5.9820	4.3994	5.0251
O	2.6240	8.3269	9.9505
O	0.3245	1.8740	4.5218
O	3.2770	10.6523	9.7906
N	3.6334	10.7285	7.2260
N	0.6607	2.0044	1.8824
N	2.1822	8.2239	7.1413
N	5.7593	4.7237	2.4905
C	3.3098	12.4636	5.6272
C	0.2508	0.0159	0.4863
C	4.7501	0.2464	5.4966
C	1.6256	12.2772	0.3197
C	5.5717	11.8226	6.1485
C	2.4842	0.4774	1.1338
C	2.3751	6.9424	5.0323
C	6.2024	6.3087	0.7508
H	3.0517	6.5854	4.2977
C	2.8284	7.9897	5.9368
C	6.6226	5.5765	1.8990
H	3.7743	8.4723	5.7396
H	1.1194	5.6309	2.0500
C	2.9234	11.8101	6.8138
C	12.3031	1.2107	1.1541
H	1.9202	11.9351	7.1492
H	6.0404	2.8822	0.6557
C	4.9859	10.7448	6.9168
C	2.0162	1.6701	1.8380
H	5.6354	10.0074	7.3348
H	2.7162	2.2394	2.4280
C	0.8520	7.8069	7.1784
C	4.4674	5.1906	2.5539
H	0.1467	8.3830	7.7387
H	3.7746	4.7146	3.2197
C	0.3675	6.7076	6.3431
C	4.1007	6.4378	1.8988
H	3.1944	6.9521	2.1820
C	1.1544	6.2383	5.2551
C	4.8663	6.9265	0.8007
C	5.4245	1.5942	4.8139
C	1.9914	11.0946	9.7133
C	0.7834	4.8163	4.5740
C	3.9284	7.9181	9.9356
Ni	9.2300	9.7534	8.7437
Ni	-0.0452	3.1792	3.3560
O	7.9449	4.2810	4.0349
O	10.6976	8.7387	9.0200
O	10.9291	2.1961	3.4526
O	7.7691	10.8203	8.8616
O	12.0520	4.2500	4.6488
O	8.7653	8.6441	10.1128
O	6.7259	2.0032	4.9779
O	9.6977	10.9853	9.9460
N	9.9472	10.8994	7.2649
N	7.1739	2.1757	2.2961
N	8.5137	8.4451	7.3900
N	11.7793	4.5921	2.1161
C	9.8777	11.9499	5.0301
C	7.1084	1.0243	0.1050
H	9.5551	11.8435	4.0178
H	12.0462	11.8004	0.1962
C	10.8595	0.3960	5.3826
C	8.1750	0.1672	0.4582
C	11.2727	0.3387	6.7248
C	8.7891	0.4219	1.6935
H	6.6433	11.9194	6.0924
H	9.6868	12.4047	1.9514
C	8.7664	7.0545	5.3624
C	12.1791	6.5647	0.7857
H	9.3461	6.8072	4.4849
C	9.2412	8.0740	6.2694
C	0.0975	5.6138	1.7438
H	10.2222	8.4983	6.1064
H	7.6397	5.4492	2.0931
C	9.3166	11.0726	6.0417
C	6.7732	2.1665	0.9707
H	8.4221	10.5163	5.8114
H	11.2581	1.4688	1.1079
C	11.0401	11.6759	7.4954
C	8.2402	1.3719	2.6193
H	11.6207	11.4950	8.3703
H	8.6535	1.4343	3.6080
C	7.2527	7.9136	7.5323
C	10.4405	4.9432	2.1231
H	6.6629	8.2654	8.3403
H	9.7284	4.2720	2.5541
C	6.7882	6.8164	6.6933
C	10.0029	6.2546	1.6263
H	9.1611	6.7585	2.0607
C	7.6167	6.3036	5.6740
C	10.8276	6.9886	0.7580
C	11.5692	1.3915	4.3515
C	8.4882	11.5428	9.7899
C	7.2252	4.9397	4.9677
C	10.0295	8.1477	10.0679
C	2.4978	11.9464	4.4368
C	1.2584	11.0665	4.7213
H	3.1455	11.2480	3.8792
H	2.1476	0.2889	3.8740
C	0.5226	10.6567	3.4502
H	0.5646	11.6000	5.3759
H	1.5588	10.1430	5.2433
H	0.0303	11.5388	3.0005
H	12.2428	9.9125	3.7010
H	1.2228	10.2000	2.7187
C	3.7856	12.2901	1.4115
C	4.7514	0.1662	2.3769
H	4.3684	12.3633	0.5009
H	3.5264	11.2430	1.6973
C	5.8031	11.5991	2.6705
H	4.1716	0.4036	3.1854
H	5.1007	1.0941	2.0444
H	5.3306	10.7229	3.1624
H	6.5810	11.9750	3.3586
H	6.2786	11.2430	1.7344
C	11.6264	5.8717	6.6362
C	10.5540	5.7662	7.7102
H	12.0769	4.8741	6.7310
H	11.0476	5.9639	5.7042
C	10.8023	4.6297	8.6946
H	9.6037	5.5020	7.2226
H	10.3625	6.6982	8.1732
H	10.4032	3.7402	8.2393
H	10.3671	4.7722	9.6833
H	11.8463	4.4257	8.8292
C	6.3877	5.6225	9.8016
C	7.8077	5.0707	9.6771
H	5.7120	4.7576	9.7449
H	6.2465	6.3555	9.0716
C	7.8738	3.8451	8.7708
H	8.4490	5.8860	9.3079
H	8.4266	4.6892	0.3491
H	7.9415	4.0954	7.6960
H	8.6527	3.1353	9.1016
H	7.0187	3.2315	8.9431
C	11.4550	1.6022	7.4576
C	0.2962	1.6370	8.1272
H	10.6663	1.6266	8.2419
H	11.3231	2.4769	6.7858
C	1.3717	2.1671	7.2357
H	0.6130	0.6309	8.3979
H	0.2190	2.2312	9.0475
H	1.1211	3.1695	6.8514
H	1.5302	1.5047	6.3925
H	2.2835	2.1538	7.8423
C	6.0454	0.6157	9.1943
C	4.7915	1.4230	8.8693
H	6.7260	0.5578	8.3195
H	5.7230	12.0903	9.3563
C	5.0536	2.3927	7.7455
H	4.0052	0.7231	8.5552
H	4.3391	1.9388	9.7378
H	4.2677	2.3333	6.9805
H	5.0797	3.3844	8.1860
H	6.0261	2.2564	7.2494
C	5.4428	6.1130	6.8249
C	4.2021	5.9023	7.6540
H	5.8348	5.1130	7.0743
H	5.0125	6.2886	5.8146
C	3.2630	4.8830	7.0242
H	3.7460	6.8091	7.7406
H	4.2626	5.6046	8.6847
H	3.5182	4.5605	5.9927
H	2.2397	5.2064	7.1005
H	3.1993	4.0358	7.6785
C	0.3085	6.8016	9.9297
C	1.5623	5.9212	9.8385
H	0.4874	7.8845	9.9492
H	12.2841	6.6356	9.0462
C	1.5586	4.4018	9.8804
H	2.3678	6.1851	0.3946
H	2.0678	6.2365	8.9468
H	1.0027	3.9436	0.2200
H	2.5439	4.0206	10.2271
H	1.4141	4.0639	8.8684
