180
Atoms. Timestep: 0
Ni 2.89857 9.41116 8.59265
Ni 6.17525 3.10579 3.48481
O 1.44827 4.35425 3.93374
O 4.4416 8.15245 9.05464
O 4.63665 1.84729 3.87523
O 1.36499 10.6744 9.00295
O 5.80609 4.46033 4.96242
O 2.54244 8.0327 10.0675
O 0.25117 1.69264 4.94273
O 3.23722 10.8047 10.0626
N 3.69677 10.6606 7.2416
N 0.71256 1.8642 2.11704
N 2.17217 8.14409 7.25198
N 5.44023 4.39481 2.13747
C 3.48546 12.1483 5.36301
C 0.47488 0.38955 0.2292
C 4.76073 0.1474 5.61481
C 1.74333 12.3699 0.47412
C 5.50345 12.1502 6.68209
C 2.49852 0.35508 1.54004
C 2.48363 6.6337 5.40822
C 5.72803 5.90364 0.28669
H 3.13294 6.27291 4.61605
C 2.92756 7.68099 6.23068
C 6.1883 4.86756 1.11596
H 3.89994 8.14655 6.0889
H 0.91589 4.41889 0.97634
C 2.98256 11.1359 6.19748
C -0.01036 1.40553 1.07106
H 1.99392 10.709 6.04703
H 5.26093 1.85011 0.92351
C 4.93641 11.1381 7.47507
C 1.94823 1.3719 2.3406
H 5.48559 10.7097 8.30944
H 2.50886 1.79214 3.17267
C 0.94573 7.62654 7.47302
C 4.21083 4.90458 2.35686
H 0.36328 8.05184 8.28732
H 3.63605 4.47744 3.17528
C 0.43859 6.57577 6.69176
C 3.68763 5.945 1.56944
H 2.69824 6.32683 1.80071
C 1.22745 6.06471 5.65205
C 4.46338 6.45777 0.52027
C 5.3126 1.24381 4.79419
C 2.0502 11.2675 9.92158
C 0.73548 4.94016 4.83586
C 3.73174 7.56629 9.95688
Ni 9.15137 9.41116 8.59265
Ni 12.4281 3.10579 3.48481
O 7.70109 4.35425 3.93374
O 10.6944 8.15245 9.05464
O 10.8895 1.84729 3.87523
O 7.61779 10.6744 9.00295
O 12.0589 4.46033 4.96242
O 8.79524 8.0327 10.0675
O 6.50397 1.69264 4.94273
O 9.49002 10.8047 10.0626
N 9.94957 10.6606 7.2416
N 6.96536 1.8642 2.11704
N 8.42499 8.14409 7.25198
N 11.693 4.39481 2.13747
C 9.73826 12.1483 5.36301
C 6.72768 0.38955 0.2292
H 9.11733 12.5181 4.55267
H 12.1225 0.03371 9.69377
C 11.0135 0.1474 5.61481
C 7.99613 12.3699 0.47412
C 11.7562 12.1502 6.68209
C 8.75132 0.35508 1.54004
H 6.50047 12.5084 6.91993
H 9.74435 12.5067 1.77336
C 8.73644 6.6337 5.40822
C 11.9808 5.90364 0.28669
H 9.38574 6.27291 4.61605
C 9.18036 7.68099 6.23068
C 12.4411 4.86756 1.11596
H 10.1527 8.14655 6.0889
H 7.16869 4.41889 0.97634
C 9.23536 11.1359 6.19748
C 6.24244 1.40553 1.07106
H 8.24672 10.709 6.04703
H 11.5137 1.85011 0.92351
C 11.1892 11.1381 7.47507
C 8.20102 1.3719 2.3406
H 11.7384 10.7097 8.30944
H 8.76167 1.79214 3.17267
C 7.19853 7.62654 7.47302
C 10.4636 4.90458 2.35686
H 6.61608 8.05184 8.28732
H 9.88885 4.47744 3.17528
C 6.69139 6.57577 6.69176
C 9.94043 5.945 1.56944
H 8.95104 6.32683 1.80071
C 7.48025 6.06471 5.65205
C 10.7162 6.45777 0.52027
C 11.5654 1.24381 4.79419
C 8.303 11.2675 9.92158
C 6.98827 4.94016 4.83586
C 9.98454 7.56629 9.95688
C 2.63205 0.14397 4.18859
C 1.24681 12.0247 4.00204
H 3.20394 12.4983 3.25033
H 2.47326 1.23416 4.33785
C 0.51452 0.1079 2.80758
H 0.62918 12.1914 4.91138
H 1.35943 10.9329 3.82457
H 0.36626 1.19855 2.95793
H 12.0256 12.1499 2.69686
H 1.09435 12.4672 1.87434
C 3.91006 12.3427 1.8426
C 4.64897 0.44919 3.03591
H 4.5383 12.5077 0.94033
H 3.82526 11.2527 2.04434
C 6.03053 12.3493 3.21957
H 4.06572 0.28591 3.96828
H 4.77828 1.54017 2.86496
H 5.94045 11.2589 3.41211
H 6.54 0.29836 4.08573
H 6.6509 12.5094 2.31205
C 11.5447 6.00542 6.98398
C 10.7672 6.64229 8.14873
H 11.6581 4.92378 7.21456
H 10.9274 6.1292 6.06766
C 9.40166 5.98263 8.32541
H 10.6086 7.72433 7.94819
H 11.3389 6.51967 9.09435
H 8.79246 6.10165 7.40411
H 8.86371 6.46095 9.17091
H 9.52057 4.90054 8.54688
C 6.39051 6.41467 9.40929
C 7.76131 5.73708 9.24038
H 5.83246 6.27323 8.45821
H 6.57565 7.49812 9.5761
C 8.53253 6.33891 8.06821
H 8.36557 5.87524 10.1634
H 7.62281 4.65113 9.04622
H 8.70713 7.42312 8.23591
H 9.51564 5.83211 7.96988
H 7.96656 6.20263 7.12205
C 0.66689 0.14446 6.99457
C 1.39135 12.025 8.1898
H 0.5941 1.23469 7.19968
H 1.29819 12.4984 6.09529
C 2.77924 0.10751 8.38347
H 1.50847 10.9331 8.01576
H 0.80479 12.192 9.11943
H 3.40281 12.4664 7.47893
H 3.27804 12.1493 9.25084
H 2.70121 1.19821 8.57933
C 5.63518 12.4132 9.32934
C 4.25917 0.55417 9.15078
H 6.20651 0.05525 8.3901
H 5.4605 11.3247 9.47339
C 3.51396 12.4884 7.95558
H 3.64204 0.39193 10.0613
H 4.38761 1.64507 8.97869
H 3.34981 11.3993 8.10068
H 2.52648 0.4619 7.85071
H 4.09318 0.12532 7.0213
C 5.29187 6.00542 6.98398
C 4.51436 6.64229 8.14873
H 5.40531 4.92378 7.21456
H 4.67461 6.1292 6.06766
C 3.14886 5.98263 8.32541
H 4.35585 7.72433 7.94819
H 5.08612 6.51967 9.09435
H 2.53966 6.10165 7.40411
H 2.61091 6.46095 9.17091
H 3.26777 4.90054 8.54688
C 0.13773 6.4147 9.40932
C 1.50856 5.73716 9.24045
H 0.32285 7.49816 9.57614
H 12.0853 6.27326 8.45822
C 2.2798 6.33902 8.06831
H 1.37012 4.6512 9.04628
H 2.11277 5.87533 10.1635
H 1.71389 6.20271 7.12212
H 3.26295 5.83227 7.97004
H 2.45434 7.42323 8.23604
180
Atoms. Timestep: 293
Ni 2.92779 9.49467 8.58171
Ni 6.41096 3.35045 3.7559
O 1.4999 4.13942 3.62232
O 4.50236 8.54943 8.85648
O 4.86821 2.40311 3.85709
O 1.35359 10.424 8.72911
O 5.98242 4.41569 5.01864
O 2.61167 8.33232 9.93196
O 0.332336 1.86337 4.51956
O 3.27771 10.6546 9.77956
N 3.64601 10.7356 7.21566
N 0.664533 1.99814 1.88206
N 2.17825 8.23381 7.12256
N 5.75604 4.73308 2.48137
C 3.33013 12.4732 5.62315
C 0.2539 0.00989683 0.486438
C 4.76904 0.253015 5.49143
C 1.62884 12.2771 0.313839
C 5.58981 11.8224 6.1359
C 2.48668 0.470626 1.13544
C 2.37698 6.93752 5.0235
C 6.18892 6.32021 0.740996
H 3.06039 6.56875 4.30138
C 2.82923 7.98922 5.92276
C 6.61351 5.5918 1.88959
H 3.788 8.45258 5.73595
H 1.12165 5.63207 2.05336
C 2.94584 11.8262 6.81163
C 12.3052 1.20304 1.15546
H 1.94681 11.9599 7.15188
H 6.059 2.8959 0.657464
C 5.00055 10.7482 6.90971
C 2.01851 1.66198 1.84033
H 5.648 10.0119 7.3325
H 2.71703 2.22639 2.43739
C 0.851038 7.80606 7.16853
C 4.46257 5.1969 2.54931
H 0.151558 8.36064 7.75628
H 3.7792 4.72871 3.22992
C 0.363214 6.71087 6.32735
C 4.08771 6.44051 1.89086
H 3.17818 6.95135 2.17614
C 1.1531 6.23821 5.24134
C 4.85177 6.93263 0.791515
C 5.43874 1.60451 4.8129
C 1.9949 11.1025 9.69955
C 0.78965 4.80797 4.57223
C 3.91557 7.9212 9.92227
Ni 9.22814 9.75204 8.75409
Ni 12.4653 3.1706 3.35615
O 7.94593 4.3022 4.0273
O 10.6963 8.73688 9.02866
O 10.9338 2.18632 3.45606
O 7.76571 10.8181 8.87369
O 12.06 4.23871 4.6496
O 8.76202 8.63541 10.1177
O 6.73691 2.02237 4.98099
O 9.69362 10.9786 9.9615
N 9.94598 10.9046 7.2815
N 7.18542 2.1847 2.29834
N 8.51419 8.45033 7.39492
N 11.7831 4.58616 2.11866
C 9.89745 11.9301 5.03585
C 7.11729 1.03337 0.107584
H 9.58141 11.8142 4.02287
H 12.0524 11.7789 0.225295
C 10.8674 0.388007 5.38864
C 8.1793 0.17045 0.462877
C 11.2662 0.347578 6.73622
C 8.78737 0.416106 1.70161
H 6.66147 11.9016 6.05719
H 9.67108 12.3803 1.96731
C 8.76937 7.06862 5.36286
C 12.178 6.56249 0.7924
H 9.34827 6.8282 4.48273
C 9.24613 8.07914 6.27739
C 0.0966384 5.6158 1.75416
H 10.2292 8.50259 6.11875
H 7.63018 5.47205 2.08228
C 9.32828 11.0641 6.05066
C 6.78771 2.17744 0.972928
H 8.43464 10.508 5.81858
H 11.2582 1.45134 1.12461
C 11.0272 11.6947 7.52065
C 8.23757 1.36268 2.62914
H 11.6019 11.5237 8.40077
H 8.63263 1.40016 3.62747
C 7.24997 7.92515 7.53041
C 10.4417 4.92863 2.11795
H 6.66151 8.27092 8.34309
H 9.72936 4.25028 2.54041
C 6.77937 6.83887 6.68033
C 10.0021 6.24144 1.62749
H 9.17385 6.75047 2.08137
C 7.61266 6.32328 5.665
C 10.8255 6.98044 0.761769
C 11.5761 1.38107 4.35289
C 8.48476 11.5377 9.80359
C 7.22391 4.96 4.95942
C 10.0261 8.13869 10.0712
C 2.52256 11.9393 4.43696
C 1.28093 11.0643 4.7274
H 3.17242 11.2357 3.88589
H 2.17281 0.274796 3.86557
C 0.541724 10.6556 3.45754
H 0.588259 11.5998 5.38406
H 1.58199 10.1424 5.25003
H 0.060688 11.5425 3.00552
H 12.2537 9.92071 3.71006
H 1.2356 10.1903 2.72505
C 3.78335 12.2782 1.41898
C 4.76198 0.159577 2.37212
H 4.3639 12.3499 0.509048
H 3.52224 11.23 1.70058
C 5.80953 11.5873 2.6576
H 4.19377 0.403348 3.18534
H 5.11578 1.08489 2.03224
H 5.33154 10.7037 3.13042
H 6.58132 11.9511 3.35883
H 6.29152 11.247 1.71944
C 11.6255 5.86874 6.62448
C 10.5576 5.76813 7.70283
H 12.0828 4.87619 6.72644
H 11.0429 5.94605 5.69299
C 10.7968 4.62204 8.68068
H 9.59669 5.52422 7.22681
H 10.3866 6.70148 8.17009
H 10.361 3.74725 8.22813
H 10.3786 4.77906 9.6755
H 11.8406 4.3802 8.79676
C 6.37212 5.6315 9.79271
C 7.79435 5.08815 9.6642
H 5.69565 4.76455 9.74385
H 6.22691 6.35669 9.05534
C 7.85353 3.85363 8.77277
H 8.43011 5.90081 9.27963
H 8.42334 4.72136 0.336619
H 7.92404 4.0967 7.6965
H 8.62755 3.14471 9.11508
H 6.99366 3.2467 8.94447
C 11.4558 1.61861 7.45525
C 0.297048 1.64693 8.12351
H 10.6736 1.65316 8.24367
H 11.3232 2.48932 6.7769
C 1.37112 2.16855 7.22808
H 0.611626 0.640742 8.39539
H 0.22617 2.23615 9.04767
H 1.12457 3.17039 6.83978
H 1.52432 1.49594 6.39045
H 2.28163 2.15359 7.83398
C 6.04123 0.620137 9.20745
C 4.78215 1.42601 8.89298
H 6.71056 0.557787 8.32534
H 5.72309 12.0952 9.37487
C 5.02852 2.38538 7.75527
H 3.99152 0.72106 8.59878
H 4.33931 1.94847 9.76249
H 4.23815 2.3125 6.99535
H 5.06158 3.38508 8.17956
H 5.99715 2.24827 7.25333
C 5.42345 6.14798 6.8008
C 4.18838 5.91102 7.63894
H 5.81599 5.15015 7.055
H 4.99584 6.31319 5.78831
C 3.25823 4.87305 7.02557
H 3.71108 6.80407 7.74354
H 4.26129 5.61954 8.66795
H 3.53301 4.51474 6.01128
H 2.23185 5.19355 7.07726
H 3.18413 4.04905 7.71077
C 0.303064 6.78981 9.93088
C 1.5532 5.91088 9.83476
H 0.479936 7.87297 9.94021
H -0.222274 6.61097 9.04894
C 1.55221 4.39314 9.91489
H 2.3684 6.19643 0.37393
H 2.04258 6.21134 8.92961
H 0.981691 3.94448 0.240623
H 2.75598 4.02536 0.0284109
H 1.43301 4.03066 8.90794
180
Atoms. Timestep: 315
Ni 2.928 9.48895 8.59643
Ni 6.40515 3.33757 3.75879
O 1.49405 4.14676 3.62451
O 4.50945 8.55013 8.8672
O 4.85638 2.39785 3.86069
O 1.35043 10.41 8.74806
O 5.98161 4.40013 5.02485
O 2.62326 8.3266 9.94866
O 0.325982 1.8723 4.52144
O 3.27644 10.6518 9.79138
N 3.63325 10.7303 7.22735
N 0.661777 2.00428 1.88216
N 2.18213 8.22568 7.14
N 5.75833 4.72394 2.48978
C 3.3097 12.4653 5.62827
C 0.251272 0.0140572 0.488383
C 4.75032 0.246897 5.49721
C 1.62598 12.2762 0.320861
C 5.5714 11.8237 6.15055
C 2.48469 0.476445 1.13546
C 2.37498 6.94276 5.03132
C 6.20158 6.30788 0.748983
H 3.05173 6.58539 4.29663
C 2.82874 7.99097 5.93514
C 6.62207 5.57568 1.89683
H 3.77208 8.47764 5.73478
H 1.11887 5.63276 2.05024
C 2.92327 11.8117 6.81472
C 12.3042 1.20959 1.15515
H 1.92018 11.9361 7.1498
H 6.04428 2.88454 0.654602
C 4.98617 10.7469 6.91935
C 2.01723 1.6702 1.83844
H 5.63417 10.0058 7.33105
H 2.71711 2.24045 2.42807
C 0.852315 7.8075 7.17796
C 4.46616 5.19203 2.55243
H 0.146804 8.38279 7.73917
H 3.77082 4.71376 3.21344
C 0.368039 6.70752 6.34335
C 4.10031 6.43941 1.89676
H 3.1935 6.95429 2.17874
C 1.15465 6.23794 5.25525
C 4.86551 6.92632 0.798303
C 5.42518 1.59447 4.81394
C 1.99088 11.0941 9.71446
C 0.783241 4.81594 4.57363
C 3.92744 7.91786 9.9332
Ni 9.22889 9.75261 8.74338
Ni -0.0446726 3.17809 3.35561
O 7.94485 4.28224 4.03408
O 10.6961 8.73833 9.01946
O 10.9308 2.19347 3.45163
O 7.7672 10.8198 8.86202
O 12.0521 4.24898 4.64886
O 8.76352 8.64236 10.1116
O 6.7265 2.00368 4.97774
O 9.69596 10.9833 9.9467
N 9.94627 10.8991 7.26559
N 7.17475 2.17649 2.29563
N 8.51347 8.44605 7.38987
N 11.7788 4.59148 2.11536
C 9.87963 11.9465 5.02868
C 7.10997 1.02572 0.104824
H 9.5562 11.8403 4.01649
H 12.0464 11.7964 0.202457
C 10.8615 0.393052 5.38155
C 8.17622 0.168126 0.457917
C 11.2726 0.337409 6.72507
C 8.79238 0.425184 1.69186
H 6.64318 11.9202 6.0939
H 9.68753 12.4049 1.95168
C 8.76635 7.05507 5.36323
C 12.1779 6.5638 0.783689
H 9.34595 6.80629 4.48632
C 9.24179 8.07386 6.27011
C 0.0965878 5.61464 1.74355
H 10.2238 8.49631 6.10824
H 7.6398 5.44608 2.08844
C 9.31795 11.0699 6.04064
C 6.77483 2.16777 0.970528
H 8.4219 10.5149 5.81108
H 11.2598 1.46624 1.11089
C 11.04 11.6751 7.49619
C 8.24292 1.3749 2.61817
H 11.6201 11.4946 8.37095
H 8.65374 1.43475 3.60795
C 7.25251 7.9159 7.53249
C 10.4395 4.94227 2.12147
H 6.66349 8.26914 8.34106
H 9.72746 4.27197 2.55245
C 6.78861 6.81731 6.69528
C 10.0027 6.25415 1.62566
H 9.16336 6.76001 2.06319
C 7.61706 6.30437 5.67545
C 10.8267 6.98746 0.756051
C 11.5714 1.38855 4.35028
C 8.48659 11.5411 9.79144
C 7.22481 4.94108 4.96722
C 10.028 8.1461 10.0662
C 2.49727 11.9486 4.43804
C 1.25854 11.068 4.72296
H 3.14472 11.2497 3.88066
H 2.14736 0.290603 3.87449
C 0.524806 10.6562 3.45142
H 0.565427 11.6027 5.37652
H 1.55719 10.1464 5.24901
H 0.0340848 11.5385 3.00143
H 12.2432 9.91367 3.70172
H 1.22566 10.1989 2.72017
C 3.78576 12.2893 1.4132
C 4.7534 0.165398 2.3768
H 4.36754 12.3626 0.501883
H 3.52666 11.242 1.69938
C 5.80369 11.5977 2.67025
H 4.17506 0.40043 3.18617
H 5.10315 1.09382 2.0445
H 5.32774 10.7216 3.15871
H 6.58242 11.9733 3.35896
H 6.27651 11.2418 1.73365
C 11.625 5.87325 6.6352
C 10.5541 5.76638 7.71014
H 12.0734 4.87501 6.72866
H 11.0457 5.96509 5.7041
C 10.8032 4.63035 8.69461
H 9.60446 5.50155 7.2233
H 10.3614 6.69814 8.17292
H 10.405 3.74098 8.23873
H 10.3659 4.77241 9.68219
H 11.8461 4.42447 8.82813
C 6.38795 5.62198 9.80054
C 7.80836 5.07264 9.67554
H 5.71363 4.75543 9.74303
H 6.24669 6.35633 9.0723
C 7.87514 3.84632 8.77041
H 8.44801 5.88915 9.30782
H 8.4297 4.69263 0.346769
H 7.94082 4.09712 7.695
H 8.65537 3.1387 9.1009
H 7.02182 3.22951 8.94219
C 11.4551 1.6019 7.45703
C 0.295505 1.63589 8.12764
H 10.6673 1.62983 8.2423
H 11.3234 2.47604 6.78392
C 1.3704 2.16899 7.23837
H 0.612378 0.630156 8.39786
H 0.218563 2.22968 9.04806
H 1.11842 3.17255 6.85689
H 1.5283 1.50703 6.39472
H 2.28181 2.15394 7.84575
C 6.04661 0.616979 9.1948
C 4.79304 1.42421 8.87061
H 6.72583 0.558998 8.31915
H 5.72619 12.0911 9.35779
C 5.05431 2.39193 7.74486
H 4.00779 0.723193 8.55711
H 4.34158 1.94168 9.73818
H 4.26795 2.32849 6.9806
H 5.08129 3.38528 8.1826
H 6.02772 2.25488 7.2504
C 5.44453 6.112 6.82844
C 4.20122 5.90062 7.65548
H 5.83905 5.11331 7.07662
H 5.01539 6.28924 5.8182
C 3.2626 4.88125 7.02407
H 3.74408 6.80825 7.74142
H 4.26025 5.60222 8.68639
H 3.51685 4.56141 5.991
H 2.23862 5.20436 7.10167
H 3.19903 4.03331 7.67698
C 0.307619 6.80113 9.92838
C 1.55994 5.9199 9.83747
H 0.487122 7.88354 9.94916
H 12.2844 6.63486 9.04379
C 1.55249 4.40074 9.88261
H 2.36709 6.18366 0.392879
H 2.06626 6.23444 8.94671
H 0.991438 3.94634 0.218027
H 2.76313 4.01647 -0.041903
H 1.41333 4.06492 8.8691
180
Atoms. Timestep: 324
Ni 2.92826 9.48839 8.59686
Ni 6.40502 3.3373 3.75921
O 1.49432 4.1467 3.62487
O 4.51 8.5495 8.86819
O 4.85606 2.39826 3.86095
O 1.35081 10.4094 8.74789
O 5.98202 4.39934 5.02507
O 2.62402 8.32687 9.95047
O 0.324514 1.87398 4.52181
O 3.27713 10.6522 9.79061
N 3.63346 10.7284 7.22601
N 0.660815 2.00442 1.88246
N 2.18231 8.22387 7.14118
N 5.75934 4.7236 2.49048
C 3.30972 12.4636 5.62714
C 0.250918 0.0159389 0.486365
C 4.75018 0.24645 5.49669
C 1.62555 12.2772 0.319664
C 5.57172 11.8225 6.14854
C 2.48418 0.477371 1.13381
C 2.37515 6.94235 5.03223
C 6.20244 6.30869 0.750841
H 3.05168 6.58545 4.29773
C 2.8283 7.9897 5.93694
C 6.62257 5.57649 1.89894
H 3.7743 8.47228 5.73962
H 1.1194 5.63086 2.05005
C 2.92337 11.8102 6.8139
C 12.3029 1.21069 1.15402
H 1.92025 11.9351 7.14917
H 6.04044 2.88223 0.655665
C 4.98571 10.7449 6.91672
C 2.01614 1.67008 1.83799
H 5.63542 10.0074 7.33481
H 2.71625 2.23935 2.42803
C 0.851832 7.80692 7.17854
C 4.46747 5.19063 2.55379
H 0.146705 8.38299 7.73869
H 3.77453 4.71459 3.21974
C 0.367542 6.70756 6.34308
C 4.10068 6.43776 1.89883
H 3.19444 6.95214 2.18202
C 1.15439 6.2383 5.25514
C 4.8663 6.92653 0.800668
C 5.42447 1.59425 4.81393
C 1.99127 11.0946 9.71319
C 0.783324 4.81634 4.57405
C 3.92828 7.91802 9.93564
Ni 9.23012 9.7534 8.74373
Ni -0.0452795 3.17918 3.35596
O 7.94485 4.28095 4.03493
O 10.6976 8.73871 9.01993
O 10.9291 2.19606 3.45257
O 7.76906 10.8204 8.86166
O 12.052 4.25002 4.64875
O 8.76524 8.64411 10.1128
O 6.7259 2.00322 4.97783
O 9.69766 10.9853 9.94605
N 9.94719 10.8994 7.265
N 7.17398 2.17571 2.29606
N 8.51372 8.4452 7.39015
N 11.7794 4.59204 2.11611
C 9.87772 11.9498 5.03017
C 7.10843 1.02431 0.105096
H 9.55515 11.8434 4.01778
H 12.0462 11.8004 0.196178
C 10.8596 0.395998 5.38264
C 8.17497 0.167238 0.458238
C 11.2727 0.33869 6.72483
C 8.7891 0.421876 1.69351
H 6.64328 11.9194 6.0924
H 9.68678 12.4047 1.95142
C 8.76639 7.05447 5.36243
C 12.1791 6.56468 0.785703
H 9.34613 6.80723 4.4849
C 9.24114 8.074 6.26941
C 0.0973904 5.61378 1.7438
H 10.2223 8.49828 6.10646
H 7.63966 5.44924 2.09311
C 9.31657 11.0727 6.04165
C 6.77325 2.16658 0.970676
H 8.4221 10.5163 5.81139
H 11.2582 1.46883 1.10796
C 11.04 11.6759 7.49534
C 8.2402 1.37191 2.61937
H 11.6207 11.495 8.37028
H 8.65356 1.43431 3.60798
C 7.25274 7.91357 7.53224
C 10.4405 4.94317 2.12307
H 6.6629 8.26539 8.34029
H 9.72834 4.27191 2.55409
C 6.78821 6.81635 6.69332
C 10.0029 6.25458 1.62626
H 9.16103 6.75847 2.06073
C 7.61662 6.30354 5.67406
C 10.8275 6.98856 0.758003
C 11.5691 1.39152 4.35147
C 8.48823 11.5427 9.78984
C 7.22534 4.9398 4.9677
C 10.0295 8.14763 10.068
C 2.49784 11.9464 4.43686
C 1.25833 11.0665 4.72128
H 3.14548 11.248 3.87926
H 2.14758 0.288946 3.874
C 0.522645 10.6567 3.45023
H 0.564554 11.6 5.37588
H 1.55884 10.143 5.24333
H 0.0302672 11.5388 3.0005
H 12.2428 9.91254 3.70096
H 1.22277 10.2 2.71876
C 3.7856 12.2901 1.41149
C 4.75148 0.166206 2.37694
H 4.36845 12.3633 0.500928
H 3.52645 11.243 1.6973
C 5.80314 11.5991 2.67052
H 4.1716 0.403593 3.18537
H 5.10069 1.09407 2.04442
H 5.3306 10.7229 3.16243
H 6.58101 11.975 3.35857
H 6.27865 11.243 1.73433
C 11.6264 5.87171 6.63618
C 10.554 5.76621 7.71021
H 12.0769 4.87407 6.73101
H 11.0476 5.96389 5.70411
C 10.8022 4.62969 8.69455
H 9.60365 5.502 7.2226
H 10.3625 6.69816 8.17319
H 10.4032 3.74026 8.23925
H 10.3671 4.77223 9.68333
H 11.8463 4.42573 8.82921
C 6.38766 5.62253 9.80162
C 7.80764 5.07067 9.67709
H 5.71199 4.7576 9.74483
H 6.24647 6.35547 9.07164
C 7.87375 3.84513 8.77079
H 8.44901 5.88604 9.30788
H 8.42661 4.68919 0.34912
H 7.94153 4.09538 7.69599
H 8.65276 3.13529 9.10164
H 7.0187 3.23154 8.94309
C 11.455 1.60224 7.4576
C 0.296224 1.63706 8.12729
H 10.6663 1.62653 8.24189
H 11.3231 2.47693 6.78575
C 1.37171 2.16704 7.23567
H 0.612949 0.63087 8.39792
H 0.218915 2.23117 9.04747
H 1.12111 3.16944 6.85147
H 1.53026 1.50469 6.39256
H 2.28354 2.15379 7.84235
C 6.0453 0.615719 9.19432
C 4.7915 1.42295 8.86928
H 6.72609 0.557822 8.31946
H 5.72297 12.0903 9.35635
C 5.05364 2.39266 7.74546
H 4.00516 0.723136 8.55519
H 4.3391 1.93879 9.73787
H 4.2677 2.33329 6.98055
H 5.0797 3.3844 8.18599
H 6.02611 2.25643 7.24937
C 5.44282 6.11299 6.82486
C 4.202 5.90235 7.65396
H 5.83474 5.11291 7.0743
H 5.01249 6.28861 5.81461
C 3.263 4.88301 7.0241
H 3.74595 6.80913 7.74054
H 4.26258 5.6046 8.68476
H 3.51821 4.56055 5.99275
H 2.23973 5.20642 7.10045
H 3.19928 4.03577 7.67852
C 0.308393 6.80153 9.92976
C 1.56237 5.92125 9.83855
H 0.487369 7.88455 9.94915
H 12.2841 6.63563 9.04618
C 1.55859 4.40185 9.88029
H 2.36778 6.18508 0.394567
H 2.06775 6.23647 8.94676
H 1.00262 3.94362 0.219989
H 2.54391 4.02061 10.2272
H 1.41411 4.06388 8.86848
180
Atoms. Timestep: 326
Ni 2.92826 9.48827 8.59676
Ni 6.40518 3.3372 3.7592
O 1.49429 4.14675 3.62494
O 4.50997 8.5495 8.86829
O 4.85602 2.39825 3.86095
O 1.35076 10.4095 8.74784
O 5.98202 4.39938 5.02505
O 2.624 8.32686 9.95051
O 0.324495 1.87395 4.52183
O 3.27704 10.6523 9.79059
N 3.63337 10.7285 7.226
N 0.66072 2.00441 1.88244
N 2.18215 8.22391 7.14133
N 5.75931 4.72366 2.49048
C 3.30982 12.4636 5.62716
C 0.250806 0.0158892 0.48632
C 4.75006 0.246423 5.49665
C 1.62562 12.2772 0.319677
C 5.57171 11.8226 6.14854
C 2.48417 0.477365 1.13381
C 2.37508 6.94239 5.03231
C 6.20239 6.30867 0.750826
H 3.0517 6.58544 4.29774
C 2.82841 7.98968 5.93679
C 6.62257 5.57646 1.89899
H 3.77432 8.47228 5.73965
H 1.1194 5.63086 2.05003
C 2.92338 11.8101 6.81385
C 12.3031 1.21072 1.15406
H 1.92023 11.9351 7.14919
H 6.04044 2.88221 0.655674
C 4.98586 10.7448 6.91679
C 2.01619 1.67009 1.83802
H 5.63539 10.0074 7.3348
H 2.71622 2.23936 2.42803
C 0.851992 7.80687 7.17844
C 4.46743 5.19059 2.55385
H 0.146685 8.38301 7.73871
H 3.77455 4.71462 3.21974
C 0.367516 6.70761 6.34313
C 4.10068 6.43779 1.89878
H 3.19442 6.95215 2.18203
C 1.15436 6.23827 5.25511
C 4.86633 6.92652 0.800705
C 5.42447 1.59419 4.81394
C 1.99139 11.0946 9.71326
C 0.783351 4.81627 4.57396
C 3.92835 7.91809 9.93557
Ni 9.22995 9.75338 8.74367
Ni -0.0451504 3.17918 3.35596
O 7.94488 4.28096 4.03486
O 10.6976 8.7387 9.02001
O 10.9291 2.19607 3.45256
O 7.76908 10.8203 8.86164
O 12.052 4.25004 4.64877
O 8.76525 8.64409 10.1128
O 6.72587 2.00322 4.97787
O 9.69769 10.9853 9.94603
N 9.94717 10.8994 7.26494
N 7.17394 2.17574 2.29605
N 8.51374 8.44514 7.39004
N 11.7793 4.59207 2.11607
C 9.87771 11.9499 5.03013
C 7.10835 1.02434 0.105038
H 9.55514 11.8435 4.01781
H 12.0462 11.8004 0.196161
C 10.8595 0.395962 5.38261
C 8.17503 0.167151 0.458211
C 11.2727 0.338688 6.72479
C 8.78911 0.421909 1.6935
H 6.64326 11.9194 6.09239
H 9.68676 12.4047 1.95143
C 8.76639 7.05449 5.36244
C 12.1791 6.56468 0.785708
H 9.34611 6.80722 4.48492
C 9.24116 8.07401 6.26943
C 0.0974602 5.61378 1.74379
H 10.2222 8.49828 6.10644
H 7.63966 5.44924 2.09311
C 9.31659 11.0726 6.04169
C 6.77325 2.16655 0.970705
H 8.4221 10.5163 5.81139
H 11.2581 1.46883 1.10795
C 11.0401 11.6759 7.4954
C 8.24022 1.3719 2.61933
H 11.6207 11.495 8.37026
H 8.65354 1.43432 3.608
C 7.25274 7.91362 7.53231
C 10.4405 4.94315 2.12306
H 6.6629 8.26542 8.34032
H 9.72836 4.27196 2.55408
C 6.78825 6.81636 6.69331
C 10.0029 6.25456 1.62626
H 9.16106 6.75851 2.06072
C 7.61671 6.30356 5.67404
C 10.8276 6.98856 0.757967
C 11.5692 1.3915 4.35147
C 8.48817 11.5428 9.78988
C 7.22524 4.93974 4.96773
C 10.0295 8.14765 10.0679
C 2.49777 11.9464 4.43679
C 1.25836 11.0665 4.72129
H 3.14548 11.248 3.87925
H 2.14757 0.28893 3.87399
C 0.522635 10.6567 3.45022
H 0.564568 11.6 5.37588
H 1.55882 10.143 5.24332
H 0.0302548 11.5388 3.00051
H 12.2428 9.91254 3.70095
H 1.22276 10.2 2.71871
C 3.78563 12.2901 1.41153
C 4.75144 0.16621 2.37695
H 4.36843 12.3633 0.500921
H 3.52644 11.243 1.6973
C 5.80313 11.5991 2.67051
H 4.17162 0.40358 3.18537
H 5.10069 1.09411 2.04441
H 5.33058 10.7229 3.16241
H 6.58103 11.975 3.3586
H 6.2786 11.243 1.73436
C 11.6264 5.8717 6.63618
C 10.554 5.76619 7.71017
H 12.0769 4.87407 6.731
H 11.0476 5.96387 5.70416
C 10.8023 4.62971 8.69461
H 9.60368 5.502 7.22262
H 10.3625 6.69818 8.17321
H 10.4032 3.74025 8.23926
H 10.3671 4.77224 9.68332
H 11.8463 4.42571 8.82923
C 6.3877 5.62251 9.80159
C 7.80766 5.07067 9.67707
H 5.712 4.75758 9.74487
H 6.24648 6.35546 9.07164
C 7.87375 3.84508 8.77085
H 8.44899 5.88602 9.30793
H 8.42662 4.68919 0.34915
H 7.94151 4.09539 7.69599
H 8.65272 3.13532 9.10164
H 7.0187 3.23153 8.94309
C 11.455 1.60218 7.45761
C 0.296188 1.63701 8.12722
H 10.6663 1.62658 8.24193
H 11.3231 2.47695 6.78576
C 1.37173 2.16707 7.23568
H 0.612958 0.630889 8.39791
H 0.218955 2.23122 9.04749
H 1.12112 3.16947 6.85145
H 1.53024 1.50465 6.39255
H 2.28354 2.15379 7.84234
C 6.04536 0.615694 9.19432
C 4.79147 1.42297 8.86928
H 6.72604 0.557838 8.31946
H 5.723 12.0903 9.35634
C 5.05362 2.39265 7.74546
H 4.00517 0.723124 8.55516
H 4.3391 1.93878 9.73785
H 4.26771 2.33327 6.98055
H 5.07969 3.38443 8.18599
H 6.02611 2.25643 7.2494
C 5.44285 6.11296 6.82487
C 4.20207 5.90234 7.65397
H 5.83475 5.11296 7.07429
H 5.01252 6.28862 5.8146
C 3.26301 4.88298 7.02416
H 3.74595 6.80915 7.74057
H 4.26257 5.60461 8.68474
H 3.5182 4.56053 5.99273
H 2.2397 5.20643 7.10046
H 3.19927 4.0358 7.67852
C 0.308468 6.80156 9.92974
C 1.56233 5.92123 9.83848
H 0.487354 7.88451 9.94917
H 12.2841 6.63561 9.04616
C 1.55857 4.40185 9.88037
H 2.36781 6.18509 0.394591
H 2.06775 6.2365 8.9468
H 1.00268 3.94365 0.220007
H 2.54394 4.02064 10.2271
H 1.41412 4.06391 8.86845
180
Atoms. Timestep: 327
Ni 2.92826 9.48827 8.59676
Ni 6.40518 3.3372 3.7592
O 1.49429 4.14675 3.62494
O 4.50997 8.5495 8.86829
O 4.85602 2.39825 3.86095
O 1.35076 10.4095 8.74784
O 5.98202 4.39938 5.02505
O 2.624 8.32686 9.95051
O 0.324495 1.87395 4.52183
O 3.27704 10.6523 9.79059
N 3.63337 10.7285 7.226
N 0.66072 2.00441 1.88244
N 2.18215 8.22391 7.14133
N 5.75931 4.72366 2.49048
C 3.30982 12.4636 5.62716
C 0.250806 0.0158892 0.48632
C 4.75006 0.246423 5.49665
C 1.62562 12.2772 0.319677
C 5.57171 11.8226 6.14854
C 2.48417 0.477365 1.13381
C 2.37508 6.94239 5.03231
C 6.20239 6.30867 0.750826
H 3.0517 6.58544 4.29774
C 2.82841 7.98968 5.93679
C 6.62257 5.57646 1.89899
H 3.77432 8.47228 5.73965
H 1.1194 5.63086 2.05003
C 2.92338 11.8101 6.81385
C 12.3031 1.21072 1.15406
H 1.92023 11.9351 7.14919
H 6.04044 2.88221 0.655674
C 4.98586 10.7448 6.91679
C 2.01619 1.67009 1.83802
H 5.63539 10.0074 7.3348
H 2.71622 2.23936 2.42803
C 0.851992 7.80687 7.17844
C 4.46743 5.19059 2.55385
H 0.146685 8.38301 7.73871
H 3.77455 4.71462 3.21974
C 0.367516 6.70761 6.34313
C 4.10068 6.43779 1.89878
H 3.19442 6.95215 2.18203
C 1.15436 6.23827 5.25511
C 4.86633 6.92652 0.800705
C 5.42447 1.59419 4.81394
C 1.99139 11.0946 9.71326
C 0.783351 4.81627 4.57396
C 3.92835 7.91809 9.93557
Ni 9.22995 9.75338 8.74367
Ni -0.0451504 3.17918 3.35596
O 7.94488 4.28096 4.03486
O 10.6976 8.7387 9.02001
O 10.9291 2.19607 3.45256
O 7.76908 10.8203 8.86164
O 12.052 4.25004 4.64877
O 8.76525 8.64409 10.1128
O 6.72587 2.00322 4.97787
O 9.69769 10.9853 9.94603
N 9.94717 10.8994 7.26494
N 7.17394 2.17574 2.29605
N 8.51374 8.44514 7.39004
N 11.7793 4.59207 2.11607
C 9.87771 11.9499 5.03013
C 7.10835 1.02434 0.105038
H 9.55514 11.8435 4.01781
H 12.0462 11.8004 0.196161
C 10.8595 0.395962 5.38261
C 8.17503 0.167151 0.458211
C 11.2727 0.338688 6.72479
C 8.78911 0.421909 1.6935
H 6.64326 11.9194 6.09239
H 9.68676 12.4047 1.95143
C 8.76639 7.05449 5.36244
C 12.1791 6.56468 0.785708
H 9.34611 6.80722 4.48492
C 9.24116 8.07401 6.26943
C 0.0974602 5.61378 1.74379
H 10.2222 8.49828 6.10644
H 7.63966 5.44924 2.09311
C 9.31659 11.0726 6.04169
C 6.77325 2.16655 0.970705
H 8.4221 10.5163 5.81139
H 11.2581 1.46883 1.10795
C 11.0401 11.6759 7.4954
C 8.24022 1.3719 2.61933
H 11.6207 11.495 8.37026
H 8.65354 1.43432 3.608
C 7.25274 7.91362 7.53231
C 10.4405 4.94315 2.12306
H 6.6629 8.26542 8.34032
H 9.72836 4.27196 2.55408
C 6.78825 6.81636 6.69331
C 10.0029 6.25456 1.62626
H 9.16106 6.75851 2.06072
C 7.61671 6.30356 5.67404
C 10.8276 6.98856 0.757967
C 11.5692 1.3915 4.35147
C 8.48817 11.5428 9.78988
C 7.22524 4.93974 4.96773
C 10.0295 8.14765 10.0679
C 2.49777 11.9464 4.43679
C 1.25836 11.0665 4.72129
H 3.14548 11.248 3.87925
H 2.14757 0.28893 3.87399
C 0.522635 10.6567 3.45022
H 0.564568 11.6 5.37588
H 1.55882 10.143 5.24332
H 0.0302548 11.5388 3.00051
H 12.2428 9.91254 3.70095
H 1.22276 10.2 2.71871
C 3.78563 12.2901 1.41153
C 4.75144 0.16621 2.37695
H 4.36843 12.3633 0.500921
H 3.52644 11.243 1.6973
C 5.80313 11.5991 2.67051
H 4.17162 0.40358 3.18537
H 5.10069 1.09411 2.04441
H 5.33058 10.7229 3.16241
H 6.58103 11.975 3.3586
H 6.2786 11.243 1.73436
C 11.6264 5.8717 6.63618
C 10.554 5.76619 7.71017
H 12.0769 4.87407 6.731
H 11.0476 5.96387 5.70416
C 10.8023 4.62971 8.69461
H 9.60368 5.502 7.22262
H 10.3625 6.69818 8.17321
H 10.4032 3.74025 8.23926
H 10.3671 4.77224 9.68332
H 11.8463 4.42571 8.82923
C 6.3877 5.62251 9.80159
C 7.80766 5.07067 9.67707
H 5.712 4.75758 9.74487
H 6.24648 6.35546 9.07164
C 7.87375 3.84508 8.77085
H 8.44899 5.88602 9.30793
H 8.42662 4.68919 0.34915
H 7.94151 4.09539 7.69599
H 8.65272 3.13532 9.10164
H 7.0187 3.23153 8.94309
C 11.455 1.60218 7.45761
C 0.296188 1.63701 8.12722
H 10.6663 1.62658 8.24193
H 11.3231 2.47695 6.78576
C 1.37173 2.16707 7.23568
H 0.612958 0.630889 8.39791
H 0.218955 2.23122 9.04749
H 1.12112 3.16947 6.85145
H 1.53024 1.50465 6.39255
H 2.28354 2.15379 7.84234
C 6.04536 0.615694 9.19432
C 4.79147 1.42297 8.86928
H 6.72604 0.557838 8.31946
H 5.723 12.0903 9.35634
C 5.05362 2.39265 7.74546
H 4.00517 0.723124 8.55516
H 4.3391 1.93878 9.73785
H 4.26771 2.33327 6.98055
H 5.07969 3.38443 8.18599
H 6.02611 2.25643 7.2494
C 5.44285 6.11296 6.82487
C 4.20207 5.90234 7.65397
H 5.83475 5.11296 7.07429
H 5.01252 6.28862 5.8146
C 3.26301 4.88298 7.02416
H 3.74595 6.80915 7.74057
H 4.26257 5.60461 8.68474
H 3.5182 4.56053 5.99273
H 2.2397 5.20643 7.10046
H 3.19927 4.0358 7.67852
C 0.308468 6.80156 9.92974
C 1.56233 5.92123 9.83848
H 0.487354 7.88451 9.94917
H 12.2841 6.63561 9.04616
C 1.55857 4.40185 9.88037
H 2.36781 6.18509 0.394591
H 2.06775 6.2365 8.9468
H 1.00268 3.94365 0.220007
H 2.54394 4.02064 10.2271
H 1.41412 4.06391 8.86845
