172
Atoms. Timestep: 0
Ni 2.89857 9.41116 8.59265
Ni 6.17525 3.10579 3.48481
O 1.44827 4.35425 3.93374
O 4.4416 8.15245 9.05464
O 4.63665 1.84729 3.87523
O 1.36499 10.6744 9.00295
O 5.80609 4.46033 4.96242
O 2.54244 8.0327 10.0675
O 0.25117 1.69264 4.94273
O 3.23722 10.8047 10.0626
N 3.69677 10.6606 7.2416
N 0.71256 1.8642 2.11704
N 2.17217 8.14409 7.25198
N 5.44023 4.39481 2.13747
C 3.48546 12.1483 5.36301
C 0.47488 0.38955 0.2292
H 5.86971 0.03371 9.69377
C 4.76073 0.1474 5.61481
C 1.74333 12.3699 0.47412
C 5.50345 12.1502 6.68209
C 2.49852 0.35508 1.54004
H 0.24768 12.5084 6.91993
H 3.49155 12.5067 1.77336
C 2.48363 6.6337 5.40822
C 5.72803 5.90364 0.28669
C 2.92756 7.68099 6.23068
C 6.1883 4.86756 1.11596
H 3.89994 8.14655 6.0889
H 0.91589 4.41889 0.97634
C 2.98256 11.1359 6.19748
C -0.01036 1.40553 1.07106
H 1.99392 10.709 6.04703
H 5.26093 1.85011 0.92351
C 4.93641 11.1381 7.47507
C 1.94823 1.3719 2.3406
H 5.48559 10.7097 8.30944
H 2.50886 1.79214 3.17267
C 0.94573 7.62654 7.47302
C 4.21083 4.90458 2.35686
H 0.36328 8.05184 8.28732
H 3.63605 4.47744 3.17528
C 0.43859 6.57577 6.69176
C 3.68763 5.945 1.56944
H 5.70774 6.17693 6.91975
C 1.22745 6.06471 5.65205
C 4.46338 6.45777 0.52027
C 5.3126 1.24381 4.79419
C 2.0502 11.2675 9.92158
C 0.73548 4.94016 4.83586
C 3.73174 7.56629 9.95688
Ni 9.15137 9.41116 8.59265
Ni 12.4281 3.10579 3.48481
O 7.70109 4.35425 3.93374
O 10.6944 8.15245 9.05464
O 10.8895 1.84729 3.87523
O 7.61779 10.6744 9.00295
O 12.0589 4.46033 4.96242
O 8.79524 8.0327 10.0675
O 6.50397 1.69264 4.94273
O 9.49002 10.8047 10.0626
N 9.94957 10.6606 7.2416
N 6.96536 1.8642 2.11704
N 8.42499 8.14409 7.25198
N 11.693 4.39481 2.13747
C 9.73826 12.1483 5.36301
C 6.72768 0.38955 0.2292
C 11.0135 0.1474 5.61481
C 7.99613 12.3699 0.47412
C 11.7562 12.1502 6.68209
C 8.75132 0.35508 1.54004
H 6.50047 12.5084 6.91993
C 8.73644 6.6337 5.40822
C 11.9808 5.90364 0.28669
H 6.14452 6.26667 9.7662
C 9.18036 7.68099 6.23068
C 12.4411 4.86756 1.11596
H 10.1527 8.14655 6.0889
H 7.16869 4.41889 0.97634
C 9.23536 11.1359 6.19748
C 6.24244 1.40553 1.07106
H 8.24672 10.709 6.04703
H 11.5137 1.85011 0.92351
C 11.1892 11.1381 7.47507
C 8.20102 1.3719 2.3406
H 11.7384 10.7097 8.30944
H 8.76167 1.79214 3.17267
C 7.19853 7.62654 7.47302
C 10.4636 4.90458 2.35686
H 6.61608 8.05184 8.28732
H 9.88885 4.47744 3.17528
C 6.69139 6.57577 6.69176
C 9.94043 5.945 1.56944
H 11.9605 6.17693 6.91975
H 8.95104 6.32683 1.80071
C 7.48025 6.06471 5.65205
C 10.7162 6.45777 0.52027
C 11.5654 1.24381 4.79419
C 8.303 11.2675 9.92158
C 6.98827 4.94016 4.83586
C 9.98454 7.56629 9.95688
N 2.64967 0.03952 4.24156
C 1.20672 0.15495 4.38333
H 0.87323 0.02436 5.43348
H 0.88407 1.16828 4.06419
H 0.70119 11.9208 3.74721
C 3.20092 0.18428 2.90366
H 4.28809 12.4882 2.872
H 2.71207 11.9793 2.22276
H 3.00152 1.20471 2.51312
N 11.8681 12.4511 9.43977
C 11.0357 0.86136 8.69751
H 11.2594 1.91882 8.9482
H 11.223 0.73922 7.60994
H 9.96294 0.66047 8.90444
C 11.6558 11.0328 9.19854
H 12.2468 10.3968 9.88948
H 10.5882 10.7844 9.37635
H 11.8943 10.7816 8.1433
N 3.39364 6.16982 4.36816
C 4.21076 7.10697 3.61344
H 3.95577 8.16388 3.83485
H 4.04122 6.95315 2.52698
H 5.28564 6.94013 3.83886
C 3.64671 4.75224 4.16505
H 3.06372 4.11778 4.8641
H 4.71807 4.53707 4.36248
H 3.42901 4.4688 3.11347
N 2.33568 6.3957 1.87143
C 1.87052 6.50569 3.24513
H 2.68381 6.34001 3.98149
H 1.47715 7.52897 3.42112
H 1.05963 5.76961 3.4312
C 1.35126 6.58524 0.81797
H 1.53849 6.36744 10.0865
H 0.50741 5.87977 0.97072
H 0.94419 7.61803 0.85231
N 8.90247 0.03952 4.24156
C 7.45952 0.15495 4.38333
H 7.12603 0.02436 5.43348
H 7.13687 1.16828 4.06419
H 6.95399 11.9208 3.74721
C 9.45372 0.18428 2.90366
H 10.5409 12.4882 2.872
H 8.96487 11.9793 2.22276
H 9.25432 1.20471 2.51312
N 10.071 12.3818 1.90636
C 11.109 0.76181 2.37752
H 10.8127 1.82764 2.29164
H 12.0226 0.62839 1.76091
H 11.3529 0.53927 3.43817
C 10.3458 10.9556 1.98023
H 9.45987 10.3434 1.71306
H 10.6131 10.6853 3.02358
H 11.2062 10.6948 1.32814
N 9.64645 6.16982 4.36817
C 10.4636 7.10695 3.61345
H 10.2086 8.16387 3.83485
H 10.294 6.95314 2.52699
H 11.5384 6.94012 3.83887
C 9.89952 4.75224 4.16507
H 9.31652 4.11777 4.86411
H 10.9709 4.53707 4.3625
H 9.68182 4.46879 3.11349
N 0.11629 6.31008 9.46053
C 1.55882 6.38445 9.63109
H 2.09597 6.23136 0.41125
H 1.9147 7.39269 9.3317
H 2.05596 5.62177 8.99457
C 12.1006 6.48695 8.11449
H 11.0087 6.2975 8.05934
H 0.07712 5.75441 7.43328
H -0.17074 7.50654 7.74149
172
Atoms. Timestep: 347
Ni 2.89576 9.94586 8.38144
Ni 6.01144 3.35755 2.75599
O 1.42687 4.25818 3.76666
O 4.43813 8.9651 8.43935
O 4.48979 2.3625 2.87369
O 1.41263 10.9164 8.68941
O 5.55289 4.5893 3.98733
O 2.68933 8.89725 9.79827
O 0.467618 1.90073 4.83105
O 3.47213 11.2516 9.47429
N 3.34886 11.1204 6.79524
N 0.741441 2.02715 2.15471
N 2.04431 8.50662 7.20664
N 5.40628 4.58917 1.30445
C 4.73069 11.6549 4.84714
C 0.478196 1.03062 10.1876
H 5.83258 0.0536366 8.99313
C 4.37496 0.534978 4.83761
C 1.9134 0.335908 0.152683
C 3.34508 0.861611 5.7565
C 2.59362 0.666874 1.32735
H 0.251961 11.2469 5.37884
H 3.59213 0.287402 1.49037
C 2.1345 6.13361 6.63753
C 5.65092 6.43449 10.0054
C 2.05806 7.18569 7.61269
C 6.28053 5.23643 0.451122
H 2.12122 6.93597 8.64663
H 1.05569 4.63807 1.06097
C 4.47526 10.8932 6.05898
C 0.0846707 1.78905 0.979959
H 5.10708 10.0562 6.31094
H 5.10276 1.9208 0.121432
C 2.73672 -0.164242 6.58964
C 1.95 1.42747 2.35119
H 1.78516 0.0542001 7.04568
H 2.38452 1.47101 3.32298
C 1.52856 8.70753 5.93917
C 4.11119 5.04874 1.32245
H 1.60453 9.67007 5.48444
H 3.36784 4.48934 1.87023
C 0.967031 7.58676 5.16763
C 3.81722 6.41121 0.94513
H 7.08411 4.74173 6.67324
C 1.24131 6.22276 5.55508
C 4.37943 7.01921 10.2204
C 5.08023 1.65985 3.8887
C 2.19706 11.7047 9.49225
C 0.737338 4.90897 4.74794
C 3.92158 8.38621 9.5756
Ni 9.04446 9.19684 8.45378
Ni -0.0172156 3.1511 3.57688
O 7.51749 4.34144 2.99313
O 10.5572 8.21025 8.72251
O 11.06 2.03948 3.71189
O 7.50133 10.1984 8.54909
O 12.0309 4.28922 4.90671
O 8.58873 8.00652 9.74024
O 6.31101 2.19869 4.08961
O 9.35682 10.3922 9.73912
N 9.83047 10.4885 7.06942
N 6.78634 2.05881 1.42644
N 8.41932 7.89594 7.02157
N 11.7005 4.39131 2.20567
C 9.78991 0.147747 5.93176
C 6.38599 0.410974 9.85158
C 11.1227 0.110444 5.51439
C 7.59498 12.2767 10.2349
C 11.7712 11.3939 5.76996
C 8.43209 0.266171 1.15843
H 2.93445 1.8588 5.76131
C 8.22208 7.2177 4.67215
C 11.8939 5.63898 0.020058
H 6.34394 6.92924 9.35777
C 8.30267 8.24843 5.69658
C 0.00303088 4.87623 1.08599
H 8.50068 9.26139 5.40367
H 7.26488 4.82564 0.288669
C 9.30849 11.7576 6.93581
C 6.07365 1.51467 0.370803
H 8.38018 12.0105 7.40262
H 11.56 2.09815 0.89106
C 11.0747 10.2956 6.47276
C 8.04925 1.56295 1.64605
H 11.5827 9.35872 6.61821
H 8.63191 1.98786 2.45158
C 8.02655 6.59557 7.34193
C 10.2885 4.638 2.152
H 8.15203 6.21098 8.33383
H 11.188 4.38413 2.57364
C 7.48407 5.69658 6.35865
C 9.83368 5.71689 1.30141
H 0.493563 7.799 4.2253
H 8.81172 6.0466 1.39813
C 7.49299 6.03268 4.99221
C 10.6471 6.30564 0.287798
C 11.7551 1.30187 4.62782
C 8.11494 10.9075 9.55345
C 6.82653 5.08249 3.90281
C 9.86563 7.52474 9.68377
N 4.77058 10.9293 3.59548
C 3.39747 10.6674 3.12156
H 2.72694 11.5277 3.29525
H 3.41012 10.4203 2.03905
H 2.91918 9.83797 3.66399
C 5.47548 9.63885 3.74664
H 4.91857 8.93729 4.38414
H 5.65936 9.17153 2.75629
H 6.41961 9.76893 4.29321
N 12.2097 0.642442 9.05711
C 11.4829 1.73551 8.38908
H 11.1535 2.53043 9.07532
H 12.107 2.14512 7.57053
H 10.5362 1.39009 7.96015
C 11.3379 12.1026 9.50112
H 11.7746 11.4774 10.3126
H 10.3664 12.5204 9.82696
H 11.2648 11.399 8.69162
N 3.4245 5.54336 6.38312
C 4.49387 6.56129 6.35797
H 4.14035 7.59328 6.17815
H 5.1067 6.38172 5.48961
H 5.10354 6.56379 7.28163
C 3.74486 4.43066 7.28198
H 3.82203 4.76822 8.33712
H 4.71133 3.97429 6.98009
H 2.98005 3.63729 7.19673
N 3.17157 7.28294 1.89886
C 3.58131 6.97441 3.26747
H 3.20517 5.99028 3.59808
H 4.68701 6.96779 3.32743
H 3.19383 7.72506 3.95866
C 1.71923 7.40487 1.75212
H 1.40495 7.30761 0.694432
H 1.19682 6.6612 2.37703
H 1.39994 8.41197 2.09561
N 8.85501 0.916467 5.18519
C 8.65517 2.23093 5.82528
H 8.38731 2.97651 5.05813
H 7.88401 2.19748 6.626
H 9.59916 2.62463 6.2595
C 7.62541 0.127199 4.98359
H 6.85791 0.39241 5.7388
H 7.29505 0.215063 3.9465
H 7.76472 11.5568 5.06755
N 8.89154 11.8661 2.15247
C 10.3147 11.5467 2.22297
H 10.9288 12.4223 1.9502
H 10.5725 10.6567 1.62168
H 10.566 11.3001 3.26722
C 7.97414 10.7586 2.35404
H 6.93869 11.1429 2.33005
H 8.18341 10.3039 3.32357
H 8.03925 10.0061 1.55984
N 9.37497 7.03737 3.83533
C 9.76536 8.20835 3.05422
H 9.92716 9.09272 3.69682
H 9.01942 8.33635 2.26237
H 10.731 8.04204 2.53072
C 10.4883 6.6049 4.66406
H 11.334 6.39344 3.99704
H 10.2023 5.68907 5.21744
H 10.7886 7.38461 5.39623
N 12.1118 5.44972 8.91538
C 0.730302 4.49439 8.78463
H 0.557209 3.55841 9.32338
H 1.65567 4.91558 9.21466
H 0.900577 4.20588 7.73334
C 10.9955 5.07221 8.02042
H 10.1594 4.57124 8.55677
H 11.2953 4.38585 7.20959
H 10.6246 5.97914 7.51941
172
Atoms. Timestep: 348
Ni 2.89576 9.94586 8.38144
Ni 6.01144 3.35755 2.75599
O 1.42687 4.25818 3.76666
O 4.43813 8.9651 8.43935
O 4.48979 2.3625 2.87369
O 1.41263 10.9164 8.68941
O 5.55289 4.5893 3.98733
O 2.68933 8.89725 9.79827
O 0.467618 1.90073 4.83105
O 3.47213 11.2516 9.47429
N 3.34886 11.1204 6.79524
N 0.741441 2.02715 2.15471
N 2.04431 8.50662 7.20664
N 5.40628 4.58917 1.30445
C 4.73069 11.6549 4.84714
C 0.478196 1.03062 10.1876
H 5.83258 0.0536366 8.99313
C 4.37496 0.534978 4.83761
C 1.9134 0.335908 0.152683
C 3.34508 0.861611 5.7565
C 2.59362 0.666874 1.32735
H 0.251961 11.2469 5.37884
H 3.59213 0.287402 1.49037
C 2.1345 6.13361 6.63753
C 5.65092 6.43449 10.0054
C 2.05806 7.18569 7.61269
C 6.28053 5.23643 0.451122
H 2.12122 6.93597 8.64663
H 1.05569 4.63807 1.06097
C 4.47526 10.8932 6.05898
C 0.0846707 1.78905 0.979959
H 5.10708 10.0562 6.31094
H 5.10276 1.9208 0.121432
C 2.73672 12.3592 6.58964
C 1.95 1.42747 2.35119
H 1.78516 0.0542001 7.04568
H 2.38452 1.47101 3.32298
C 1.52856 8.70753 5.93917
C 4.11119 5.04874 1.32245
H 1.60453 9.67007 5.48444
H 3.36784 4.48934 1.87023
C 0.967031 7.58676 5.16763
C 3.81722 6.41121 0.94513
H 7.08411 4.74173 6.67324
C 1.24131 6.22276 5.55508
C 4.37943 7.01921 10.2204
C 5.08023 1.65985 3.8887
C 2.19706 11.7047 9.49225
C 0.737338 4.90897 4.74794
C 3.92158 8.38621 9.5756
Ni 9.04446 9.19684 8.45378
Ni -0.0172156 3.1511 3.57688
O 7.51749 4.34144 2.99313
O 10.5572 8.21025 8.72251
O 11.06 2.03948 3.71189
O 7.50133 10.1984 8.54909
O 12.0309 4.28922 4.90671
O 8.58873 8.00652 9.74024
O 6.31101 2.19869 4.08961
O 9.35682 10.3922 9.73912
N 9.83047 10.4885 7.06942
N 6.78634 2.05881 1.42644
N 8.41932 7.89594 7.02157
N 11.7005 4.39131 2.20567
C 9.78991 0.147747 5.93176
C 6.38599 0.410974 9.85158
C 11.1227 0.110444 5.51439
C 7.59498 12.2767 10.2349
C 11.7712 11.3939 5.76996
C 8.43209 0.266171 1.15843
H 2.93445 1.8588 5.76131
C 8.22208 7.2177 4.67215
C 11.8939 5.63898 0.020058
H 6.34394 6.92924 9.35777
C 8.30267 8.24843 5.69658
C 0.00303088 4.87623 1.08599
H 8.50068 9.26139 5.40367
H 7.26488 4.82564 0.288669
C 9.30849 11.7576 6.93581
C 6.07365 1.51467 0.370803
H 8.38018 12.0105 7.40262
H 11.56 2.09815 0.89106
C 11.0747 10.2956 6.47276
C 8.04925 1.56295 1.64605
H 11.5827 9.35872 6.61821
H 8.63191 1.98786 2.45158
C 8.02655 6.59557 7.34193
C 10.2885 4.638 2.152
H 8.15203 6.21098 8.33383
H 11.188 4.38413 2.57364
C 7.48407 5.69658 6.35865
C 9.83368 5.71689 1.30141
H 0.493563 7.799 4.2253
H 8.81172 6.0466 1.39813
C 7.49299 6.03268 4.99221
C 10.6471 6.30564 0.287798
C 11.7551 1.30187 4.62782
C 8.11494 10.9075 9.55345
C 6.82653 5.08249 3.90281
C 9.86563 7.52474 9.68377
N 4.77058 10.9293 3.59548
C 3.39747 10.6674 3.12156
H 2.72694 11.5277 3.29525
H 3.41012 10.4203 2.03905
H 2.91918 9.83797 3.66399
C 5.47548 9.63885 3.74664
H 4.91857 8.93729 4.38414
H 5.65936 9.17153 2.75629
H 6.41961 9.76893 4.29321
N 12.2097 0.642442 9.05711
C 11.4829 1.73551 8.38908
H 11.1535 2.53043 9.07532
H 12.107 2.14512 7.57053
H 10.5362 1.39009 7.96015
C 11.3379 12.1026 9.50112
H 12.0022 11.4774 0.0383699
H 10.3664 12.5204 9.82696
H 11.2648 11.399 8.69162
N 3.4245 5.54336 6.38312
C 4.49387 6.56129 6.35797
H 4.14035 7.59328 6.17815
H 5.1067 6.38172 5.48961
H 5.10354 6.56379 7.28163
C 3.74486 4.43066 7.28198
H 3.82203 4.76822 8.33712
H 4.71133 3.97429 6.98009
H 2.98005 3.63729 7.19673
N 3.17157 7.28294 1.89886
C 3.58131 6.97441 3.26747
H 3.20517 5.99028 3.59808
H 4.68701 6.96779 3.32743
H 3.19383 7.72506 3.95866
C 1.71923 7.40487 1.75212
H 1.40495 7.30761 0.694432
H 1.19682 6.6612 2.37703
H 1.39994 8.41197 2.09561
N 8.85501 0.916467 5.18519
C 8.65517 2.23093 5.82528
H 8.38731 2.97651 5.05813
H 7.88401 2.19748 6.626
H 9.59916 2.62463 6.2595
C 7.62541 0.127199 4.98359
H 6.85791 0.39241 5.7388
H 7.29505 0.215063 3.9465
H 7.76472 11.5568 5.06755
N 8.89154 11.8661 2.15247
C 10.3147 11.5467 2.22297
H 10.9288 12.4223 1.9502
H 10.5725 10.6567 1.62168
H 10.566 11.3001 3.26722
C 7.97414 10.7586 2.35404
H 6.93869 11.1429 2.33005
H 8.18341 10.3039 3.32357
H 8.03925 10.0061 1.55984
N 9.37497 7.03737 3.83533
C 9.76536 8.20835 3.05422
H 9.92716 9.09272 3.69682
H 9.01942 8.33635 2.26237
H 10.731 8.04204 2.53072
C 10.4883 6.6049 4.66406
H 11.334 6.39344 3.99704
H 10.2023 5.68907 5.21744
H 10.7886 7.38461 5.39623
N 12.1118 5.44972 8.91538
C 0.730302 4.49439 8.78463
H 0.557209 3.55841 9.32338
H 1.65567 4.91558 9.21466
H 0.900577 4.20588 7.73334
C 10.9955 5.07221 8.02042
H 10.1594 4.57124 8.55677
H 11.2953 4.38585 7.20959
H 10.6246 5.97914 7.51941
