156

Ni	2.8986	9.4112	8.5926
Ni	6.1753	3.1058	3.4848
O	1.4483	4.3542	3.9337
O	4.4416	8.1524	9.0546
O	4.6366	1.8473	3.8752
O	1.3650	10.6743	9.0030
O	5.8061	4.4603	4.9624
O	2.5424	8.0327	10.0675
O	0.2512	1.6926	4.9427
O	3.2372	10.8047	10.0626
N	3.6968	10.6606	7.2416
N	0.7126	1.8642	2.1170
N	2.1722	8.1441	7.2520
N	5.4402	4.3948	2.1375
C	3.4855	12.1483	5.3630
C	0.4749	0.3896	0.2292
H	2.8645	12.5181	4.5527
H	5.8697	0.0337	9.6938
C	4.7607	0.1474	5.6148
C	1.7433	12.3699	0.4741
C	5.5034	12.1502	6.6821
C	2.4985	0.3551	1.5400
H	0.2477	12.5084	6.9199
H	3.4915	12.5067	1.7734
C	2.4836	6.6337	5.4082
C	5.7280	5.9036	0.2867
H	3.1329	6.2729	4.6160
H	-0.1083	6.2667	9.7662
C	2.9276	7.6810	6.2307
C	6.1883	4.8676	1.1160
H	3.8999	8.1465	6.0889
H	0.9159	4.4189	0.9763
C	2.9826	11.1359	6.1975
C	-0.0104	1.4055	1.0711
H	5.2609	1.8501	0.9235
C	4.9364	11.1381	7.4751
C	1.9482	1.3719	2.3406
H	5.4856	10.7097	8.3094
H	2.5089	1.7921	3.1727
C	0.9457	7.6265	7.4730
C	4.2108	4.9046	2.3569
H	3.6360	4.4774	3.1753
C	0.4386	6.5758	6.6918
C	3.6876	5.9450	1.5694
H	5.7077	6.1769	6.9197
H	2.6982	6.3268	1.8007
C	1.2275	6.0647	5.6520
C	4.4634	6.4578	0.5203
C	5.3126	1.2438	4.7942
C	2.0502	11.2676	9.9216
C	0.7355	4.9402	4.8359
C	3.7317	7.5663	9.9569
Ni	9.1514	9.4112	8.5926
Ni	12.4281	3.1058	3.4848
O	7.7011	4.3542	3.9337
O	10.6944	8.1524	9.0546
O	10.8894	1.8473	3.8752
O	7.6178	10.6743	9.0030
O	12.0589	4.4603	4.9624
O	8.7952	8.0327	10.0675
O	6.5040	1.6926	4.9427
O	9.4900	10.8047	10.0626
N	9.9496	10.6606	7.2416
N	6.9654	1.8642	2.1170
N	8.4250	8.1441	7.2520
N	11.6930	4.3948	2.1375
C	9.7383	12.1483	5.3630
C	6.7277	0.3896	0.2292
H	9.1173	12.5181	4.5527
H	12.1225	0.0337	9.6938
C	11.0135	0.1474	5.6148
C	7.9961	12.3699	0.4741
C	11.7562	12.1502	6.6821
C	8.7513	0.3551	1.5400
H	6.5005	12.5084	6.9199
H	9.7443	12.5067	1.7734
C	8.7364	6.6337	5.4082
C	11.9808	5.9036	0.2867
H	9.3857	6.2729	4.6160
H	6.1445	6.2667	9.7662
C	9.1804	7.6810	6.2307
C	12.4411	4.8676	1.1160
H	10.1527	8.1465	6.0889
C	9.2354	11.1359	6.1975
C	6.2424	1.4055	1.0711
H	8.2467	10.7090	6.0470
C	11.1892	11.1381	7.4751
C	8.2010	1.3719	2.3406
C	7.1985	7.6265	7.4730
C	10.4636	4.9046	2.3569
C	6.6914	6.5758	6.6918
C	9.9404	5.9450	1.5694
H	11.9605	6.1769	6.9197
H	8.9510	6.3268	1.8007
C	7.4803	6.0647	5.6520
C	10.7162	6.4578	0.5203
C	11.5654	1.2438	4.7942
C	8.3030	11.2676	9.9216
C	6.9883	4.9402	4.8359
C	9.9845	7.5663	9.9569
C	1.5601	10.5525	5.9007
C	1.0724	9.4528	6.8472
H	1.5584	10.1204	4.8769
H	0.8177	11.3776	5.9559
H	1.7500	8.5736	6.8059
H	0.0586	9.1220	6.5367
H	1.0070	9.8347	7.8883
C	-1.4242	2.0128	0.7798
C	-1.8931	3.1147	1.7333
H	-1.4207	2.4506	-0.2415
H	-2.1793	1.1992	0.8316
H	-1.2019	3.9834	1.6958
H	-2.9020	3.4630	1.4263
H	-1.9629	2.7279	2.7723
C	0.0562	8.2036	8.6266
C	0.6676	9.3471	9.4401
H	-0.1735	7.3857	9.3429
H	-0.8894	8.5894	8.1888
H	1.5989	9.0126	9.9447
H	-0.0522	9.6689	10.2222
H	0.8807	10.2201	8.7870
C	7.6023	4.2539	0.8409
C	8.0428	3.1290	1.7811
H	8.3629	5.0597	0.9243
H	7.6157	3.8367	-0.1889
H	8.0948	3.4942	2.8289
H	9.0547	2.7781	1.4873
H	7.3452	2.2673	1.7122
C	12.0326	10.5556	8.6625
C	11.3606	9.4562	9.4889
H	12.2784	11.3813	9.3644
H	12.9718	10.1237	8.2550
H	10.4323	9.8380	9.9649
H	12.0507	9.1264	10.2941
H	11.1279	8.5764	8.8520
C	9.0594	1.9406	3.5237
C	8.4058	3.0451	4.3581
H	9.3006	1.1099	4.2212
H	10.0007	2.3630	3.1109
H	7.4766	2.6724	4.8393
H	9.1053	3.3644	5.1595
H	8.1789	3.9295	3.7255
C	6.3090	8.2036	8.6266
C	6.9204	9.3472	9.4400
H	5.3633	8.5893	8.1888
H	6.0793	7.3857	9.3429
H	7.1334	10.2201	8.7869
H	6.2005	9.6690	10.2221
H	7.8517	9.0127	9.9447
C	9.5826	4.3295	3.5200
C	10.2076	3.1986	4.3408
H	8.6387	3.9313	3.0894
H	9.3482	5.1514	4.2301
H	10.4260	2.3220	3.6944
H	9.4938	2.8770	5.1286
H	11.1378	3.5459	4.8388
