140

Ni	2.8986	9.4112	8.5926
Ni	6.1753	3.1058	3.4848
O	1.4483	4.3542	3.9337
O	4.4416	8.1524	9.0546
O	4.6366	1.8473	3.8752
O	1.3650	10.6743	9.0030
O	5.8061	4.4603	4.9624
O	2.5424	8.0327	10.0675
O	0.2512	1.6926	4.9427
O	3.2372	10.8047	10.0626
N	3.6968	10.6606	7.2416
N	0.7126	1.8642	2.1170
N	2.1722	8.1441	7.2520
N	5.4402	4.3948	2.1375
C	3.4855	12.1483	5.3630
C	0.4749	0.3896	0.2292
H	2.8645	12.5181	4.5527
H	5.8697	0.0337	9.6938
C	4.7607	0.1474	5.6148
C	1.7433	12.3699	0.4741
C	5.5034	12.1502	6.6821
C	2.4985	0.3551	1.5400
H	0.2477	12.5084	6.9199
H	3.4915	12.5067	1.7734
C	2.4836	6.6337	5.4082
C	5.7280	5.9036	0.2867
H	3.1329	6.2729	4.6160
H	-0.1083	6.2667	9.7662
C	2.9276	7.6810	6.2307
C	6.1883	4.8676	1.1160
H	3.8999	8.1465	6.0889
C	2.9826	11.1359	6.1975
C	-0.0104	1.4055	1.0711
H	5.2609	1.8501	0.9235
C	4.9364	11.1381	7.4751
C	1.9482	1.3719	2.3406
H	5.4856	10.7097	8.3094
H	2.5089	1.7921	3.1727
C	0.9457	7.6265	7.4730
C	4.2108	4.9046	2.3569
C	0.4386	6.5758	6.6918
C	3.6876	5.9450	1.5694
H	5.7077	6.1769	6.9197
H	2.6982	6.3268	1.8007
C	1.2275	6.0647	5.6520
C	4.4634	6.4578	0.5203
C	5.3126	1.2438	4.7942
C	2.0502	11.2676	9.9216
C	0.7355	4.9402	4.8359
C	3.7317	7.5663	9.9569
Ni	9.1514	9.4112	8.5926
Ni	12.4281	3.1058	3.4848
O	7.7011	4.3542	3.9337
O	10.6944	8.1524	9.0546
O	10.8894	1.8473	3.8752
O	7.6178	10.6743	9.0030
O	12.0589	4.4603	4.9624
O	8.7952	8.0327	10.0675
O	6.5040	1.6926	4.9427
O	9.4900	10.8047	10.0626
N	9.9496	10.6606	7.2416
N	6.9654	1.8642	2.1170
N	8.4250	8.1441	7.2520
N	11.6930	4.3948	2.1375
C	9.7383	12.1483	5.3630
C	6.7277	0.3896	0.2292
H	9.1173	12.5181	4.5527
H	12.1225	0.0337	9.6938
C	11.0135	0.1474	5.6148
C	7.9961	12.3699	0.4741
C	11.7562	12.1502	6.6821
C	8.7513	0.3551	1.5400
H	6.5005	12.5084	6.9199
H	9.7443	12.5067	1.7734
C	8.7364	6.6337	5.4082
C	11.9808	5.9036	0.2867
H	9.3857	6.2729	4.6160
H	6.1445	6.2667	9.7662
C	9.1804	7.6810	6.2307
C	12.4411	4.8676	1.1160
H	10.1527	8.1465	6.0889
H	7.1687	4.4189	0.9763
C	9.2354	11.1359	6.1975
C	6.2424	1.4055	1.0711
C	11.1892	11.1381	7.4751
C	8.2010	1.3719	2.3406
H	11.7384	10.7097	8.3094
C	7.1985	7.6265	7.4730
C	10.4636	4.9046	2.3569
H	9.8888	4.4774	3.1753
C	6.6914	6.5758	6.6918
C	9.9404	5.9450	1.5694
H	11.9605	6.1769	6.9197
H	8.9510	6.3268	1.8007
C	7.4803	6.0647	5.6520
C	10.7162	6.4578	0.5203
C	11.5654	1.2438	4.7942
C	8.3030	11.2676	9.9216
C	6.9883	4.9402	4.8359
C	9.9845	7.5663	9.9569
C	1.5733	10.5275	5.9394
C	1.0137	9.5578	6.6831
H	0.9630	10.8655	5.1284
H	1.4893	9.1028	7.5376
H	0.0229	9.1976	6.4231
C	-1.4105	2.0374	0.8186
C	-1.9537	3.0115	1.5687
H	-2.0274	1.7135	0.0067
H	-1.4697	3.4542	2.4249
H	-2.9391	3.3886	1.3124
C	0.0959	8.2303	8.6302
C	0.4981	9.2352	9.4269
H	-0.8827	7.8594	8.8522
H	1.4551	9.7256	9.3427
H	-0.1673	9.5886	10.2088
C	3.3698	4.3031	3.5236
C	3.7843	3.3089	4.3274
H	2.3887	4.6670	3.7464
H	4.7454	2.8265	4.2436
H	3.1252	2.9563	5.1150
C	7.8261	10.5275	5.9394
C	7.2665	9.5578	6.6831
H	7.2158	10.8655	5.1284
H	7.7421	9.1028	7.5376
H	6.2757	9.1976	6.4231
C	9.0191	1.9665	3.5271
C	8.5777	2.9368	4.3457
H	10.0049	1.6172	3.7527
H	7.6082	3.4021	4.2616
H	9.2222	3.2866	5.1464
C	6.3487	8.2303	8.6302
C	6.7509	9.2352	9.4269
H	5.3701	7.8594	8.8522
H	7.7079	9.7256	9.3427
H	6.0855	9.5886	10.2088
C	13.8404	4.2286	0.8790
C	14.3602	3.2349	1.6198
H	14.4762	4.5634	0.0863
H	13.8554	2.7793	2.4571
H	15.3475	2.8544	1.3756
