140

Ni	2.8986	9.4112	8.5926
Ni	6.1753	3.1058	3.4848
O	1.4483	4.3542	3.9337
O	4.4416	8.1524	9.0546
O	4.6366	1.8473	3.8752
O	1.3650	10.6743	9.0030
O	5.8061	4.4603	4.9624
O	2.5424	8.0327	10.0675
O	0.2512	1.6926	4.9427
O	3.2372	10.8047	10.0626
N	3.6968	10.6606	7.2416
N	0.7126	1.8642	2.1170
N	2.1722	8.1441	7.2520
N	5.4402	4.3948	2.1375
C	3.4855	12.1483	5.3630
C	0.4749	0.3896	0.2292
H	2.8645	12.5181	4.5527
H	5.8697	0.0337	9.6938
C	4.7607	0.1474	5.6148
C	1.7433	12.3699	0.4741
C	5.5034	12.1502	6.6821
C	2.4985	0.3551	1.5400
H	0.2477	12.5084	6.9199
H	3.4915	12.5067	1.7734
C	2.4836	6.6337	5.4082
C	5.7280	5.9036	0.2867
H	3.1329	6.2729	4.6160
H	-0.1083	6.2667	9.7662
C	2.9276	7.6810	6.2307
C	6.1883	4.8676	1.1160
H	3.8999	8.1465	6.0889
H	0.9159	4.4189	0.9763
C	2.9826	11.1359	6.1975
C	-0.0104	1.4055	1.0711
H	1.9939	10.7090	6.0470
C	4.9364	11.1381	7.4751
C	1.9482	1.3719	2.3406
C	0.9457	7.6265	7.4730
C	4.2108	4.9046	2.3569
C	0.4386	6.5758	6.6918
C	3.6876	5.9450	1.5694
H	5.7077	6.1769	6.9197
H	2.6982	6.3268	1.8007
C	1.2275	6.0647	5.6520
C	4.4634	6.4578	0.5203
C	5.3126	1.2438	4.7942
C	2.0502	11.2676	9.9216
C	0.7355	4.9402	4.8359
C	3.7317	7.5663	9.9569
Ni	9.1514	9.4112	8.5926
Ni	12.4281	3.1058	3.4848
O	7.7011	4.3542	3.9337
O	10.6944	8.1524	9.0546
O	10.8894	1.8473	3.8752
O	7.6178	10.6743	9.0030
O	12.0589	4.4603	4.9624
O	8.7952	8.0327	10.0675
O	6.5040	1.6926	4.9427
O	9.4900	10.8047	10.0626
N	9.9496	10.6606	7.2416
N	6.9654	1.8642	2.1170
N	8.4250	8.1441	7.2520
N	11.6930	4.3948	2.1375
C	9.7383	12.1483	5.3630
C	6.7277	0.3896	0.2292
H	9.1173	12.5181	4.5527
H	12.1225	0.0337	9.6938
C	11.0135	0.1474	5.6148
C	7.9961	12.3699	0.4741
C	11.7562	12.1502	6.6821
C	8.7513	0.3551	1.5400
H	6.5005	12.5084	6.9199
H	9.7443	12.5067	1.7734
C	8.7364	6.6337	5.4082
C	11.9808	5.9036	0.2867
H	9.3857	6.2729	4.6160
H	6.1445	6.2667	9.7662
C	9.1804	7.6810	6.2307
C	12.4411	4.8676	1.1160
H	7.1687	4.4189	0.9763
C	9.2354	11.1359	6.1975
C	6.2424	1.4055	1.0711
H	8.2467	10.7090	6.0470
H	11.5137	1.8501	0.9235
C	11.1892	11.1381	7.4751
C	8.2010	1.3719	2.3406
H	8.7617	1.7921	3.1727
C	7.1985	7.6265	7.4730
C	10.4636	4.9046	2.3569
H	6.6161	8.0518	8.2873
C	6.6914	6.5758	6.6918
C	9.9404	5.9450	1.5694
H	11.9605	6.1769	6.9197
H	8.9510	6.3268	1.8007
C	7.4803	6.0647	5.6520
C	10.7162	6.4578	0.5203
C	11.5654	1.2438	4.7942
C	8.3030	11.2676	9.9216
C	6.9883	4.9402	4.8359
C	9.9845	7.5663	9.9569
Ofg	5.7134	10.6415	8.5237
Cfg	5.3151	9.6506	9.3981
Hfg	6.1317	9.4603	10.1242
Hfg	4.4126	9.9726	9.9601
Hfg	5.1092	8.7091	8.8455
Ofg	2.7383	1.8560	3.3851
Cfg	2.3575	2.8486	4.2652
Hfg	3.1813	3.0272	4.9862
Hfg	1.4552	2.5352	4.8325
Hfg	2.1586	3.7942	3.7170
Ofg	0.1289	8.1171	8.4914
Cfg	0.4699	9.1428	9.3496
Hfg	-0.3693	9.3186	10.0534
Hfg	0.6521	10.0783	8.7788
Hfg	1.3713	8.8691	9.9383
Ofg	3.4011	4.4154	3.3837
Cfg	3.7548	3.4003	4.2494
Hfg	2.9201	3.2231	4.9581
Hfg	3.9433	2.4616	3.6860
Hfg	4.6561	3.6874	4.8321
Ofg	11.9662	10.6415	8.5237
Cfg	11.5679	9.6506	9.3981
Hfg	12.3845	9.4603	10.1242
Hfg	11.3620	8.7091	8.8455
Hfg	10.6654	9.9726	9.9601
Ofg	4.9809	1.9244	0.7843
Cfg	4.3564	2.9216	1.5059
Hfg	3.3669	3.1310	1.0505
Hfg	4.1985	2.5960	2.5562
Hfg	4.9607	3.8534	1.4781
Ofg	10.4318	8.2268	5.9545
Cfg	11.0161	9.2577	6.6622
Hfg	12.0080	9.4827	6.2194
Hfg	11.1633	8.9620	7.7229
Hfg	10.3879	10.1719	6.6008
Ofg	9.6539	4.4154	3.3837
Cfg	10.0076	3.4003	4.2494
Hfg	9.1729	3.2231	4.9581
Hfg	10.1961	2.4616	3.6860
Hfg	10.9089	3.6874	4.8321
