140

Ni	2.8986	9.4112	8.5926
Ni	6.1753	3.1058	3.4848
O	1.4483	4.3542	3.9337
O	4.4416	8.1524	9.0546
O	4.6366	1.8473	3.8752
O	1.3650	10.6743	9.0030
O	5.8061	4.4603	4.9624
O	2.5424	8.0327	10.0675
O	0.2512	1.6926	4.9427
O	3.2372	10.8047	10.0626
N	3.6968	10.6606	7.2416
N	0.7126	1.8642	2.1170
N	2.1722	8.1441	7.2520
N	5.4402	4.3948	2.1375
C	3.4855	12.1483	5.3630
C	0.4749	0.3896	0.2292
H	5.8697	0.0337	9.6938
C	4.7607	0.1474	5.6148
C	1.7433	12.3699	0.4741
C	5.5034	12.1502	6.6821
C	2.4985	0.3551	1.5400
C	2.4836	6.6337	5.4082
C	5.7280	5.9036	0.2867
H	3.1329	6.2729	4.6160
H	-0.1083	6.2667	9.7662
C	2.9276	7.6810	6.2307
C	6.1883	4.8676	1.1160
H	3.8999	8.1465	6.0889
H	0.9159	4.4189	0.9763
C	2.9826	11.1359	6.1975
C	-0.0104	1.4055	1.0711
H	1.9939	10.7090	6.0470
H	5.2609	1.8501	0.9235
C	4.9364	11.1381	7.4751
C	1.9482	1.3719	2.3406
H	5.4856	10.7097	8.3094
H	2.5089	1.7921	3.1727
C	0.9457	7.6265	7.4730
C	4.2108	4.9046	2.3569
H	0.3633	8.0518	8.2873
H	3.6360	4.4774	3.1753
C	0.4386	6.5758	6.6918
C	3.6876	5.9450	1.5694
H	5.7077	6.1769	6.9197
H	2.6982	6.3268	1.8007
C	1.2275	6.0647	5.6520
C	4.4634	6.4578	0.5203
C	5.3126	1.2438	4.7942
C	2.0502	11.2676	9.9216
C	0.7355	4.9402	4.8359
C	3.7317	7.5663	9.9569
Ni	9.1514	9.4112	8.5926
Ni	12.4281	3.1058	3.4848
O	7.7011	4.3542	3.9337
O	10.6944	8.1524	9.0546
O	10.8894	1.8473	3.8752
O	7.6178	10.6743	9.0030
O	12.0589	4.4603	4.9624
O	8.7952	8.0327	10.0675
O	6.5040	1.6926	4.9427
O	9.4900	10.8047	10.0626
N	9.9496	10.6606	7.2416
N	6.9654	1.8642	2.1170
N	8.4250	8.1441	7.2520
N	11.6930	4.3948	2.1375
C	9.7383	12.1483	5.3630
C	6.7277	0.3896	0.2292
H	9.1173	12.5181	4.5527
H	12.1225	0.0337	9.6938
C	11.0135	0.1474	5.6148
C	7.9961	12.3699	0.4741
C	11.7562	12.1502	6.6821
C	8.7513	0.3551	1.5400
H	6.5005	12.5084	6.9199
C	8.7364	6.6337	5.4082
C	11.9808	5.9036	0.2867
C	9.1804	7.6810	6.2307
C	12.4411	4.8676	1.1160
H	10.1527	8.1465	6.0889
H	7.1687	4.4189	0.9763
C	9.2354	11.1359	6.1975
C	6.2424	1.4055	1.0711
H	8.2467	10.7090	6.0470
H	11.5137	1.8501	0.9235
C	11.1892	11.1381	7.4751
C	8.2010	1.3719	2.3406
H	11.7384	10.7097	8.3094
H	8.7617	1.7921	3.1727
C	7.1985	7.6265	7.4730
C	10.4636	4.9046	2.3569
H	6.6161	8.0518	8.2873
H	9.8888	4.4774	3.1753
C	6.6914	6.5758	6.6918
C	9.9404	5.9450	1.5694
C	7.4803	6.0647	5.6520
C	10.7162	6.4578	0.5203
C	11.5654	1.2438	4.7942
C	8.3030	11.2676	9.9216
C	6.9883	4.9402	4.8359
C	9.9845	7.5663	9.9569
S	2.7877	12.5024	4.3418
C	1.8761	13.5996	3.8438
H	1.6252	13.5999	2.7634
H	0.9432	13.4029	4.4122
H	2.3063	14.5924	4.0918
S	3.6420	-0.1308	1.8665
C	5.1042	-0.0950	1.4873
H	5.7655	-0.8606	1.9420
H	5.4188	0.8992	1.8678
H	5.2123	-0.1656	0.3849
S	-0.6949	6.0639	7.0109
C	-2.1508	6.0466	6.6071
H	-2.7969	5.2730	7.0700
H	-2.5011	7.0400	6.9571
H	-2.2379	5.9454	5.5051
S	6.5249	6.3669	-0.6121
C	6.7972	6.3280	-2.0978
H	7.5149	7.0707	-2.5021
H	7.2398	5.3183	-2.2268
H	5.8465	6.4345	-2.6609
S	12.9697	12.5030	6.9132
C	13.7913	13.5998	7.5495
H	14.8819	13.5995	7.3476
H	13.6431	13.4033	8.6319
H	13.3925	14.5928	7.2543
S	9.8948	-0.1308	1.8665
C	11.3570	-0.0949	1.4873
H	12.0183	-0.8606	1.9420
H	11.6716	0.8992	1.8678
H	11.4651	-0.1656	0.3849
S	9.4642	6.2898	4.4060
C	10.4288	5.2225	3.9441
H	10.6972	5.2120	2.8679
H	11.3432	5.4691	4.5229
H	10.0363	4.2175	4.2050
S	8.8030	6.4465	1.8927
C	7.3444	6.4447	1.4983
H	6.6927	7.2145	1.9598
H	7.0075	5.4501	1.8580
H	7.2490	6.5366	0.3963
