172

Ni	2.8986	9.4112	8.5926
Ni	6.1753	3.1058	3.4848
O	1.4483	4.3542	3.9337
O	4.4416	8.1524	9.0546
O	4.6366	1.8473	3.8752
O	1.3650	10.6743	9.0030
O	5.8061	4.4603	4.9624
O	2.5424	8.0327	10.0675
O	0.2512	1.6926	4.9427
O	3.2372	10.8047	10.0626
N	3.6968	10.6606	7.2416
N	0.7126	1.8642	2.1170
N	2.1722	8.1441	7.2520
N	5.4402	4.3948	2.1375
C	3.4855	12.1483	5.3630
C	0.4749	0.3896	0.2292
H	2.8645	12.5181	4.5527
H	5.8697	0.0337	9.6938
C	4.7607	0.1474	5.6148
C	1.7433	12.3699	0.4741
C	5.5034	12.1502	6.6821
C	2.4985	0.3551	1.5400
H	0.2477	12.5084	6.9199
H	3.4915	12.5067	1.7734
C	2.4836	6.6337	5.4082
C	5.7280	5.9036	0.2867
H	3.1329	6.2729	4.6160
H	-0.1083	6.2667	9.7662
C	2.9276	7.6810	6.2307
C	6.1883	4.8676	1.1160
C	2.9826	11.1359	6.1975
C	-0.0104	1.4055	1.0711
H	1.9939	10.7090	6.0470
H	5.2609	1.8501	0.9235
C	4.9364	11.1381	7.4751
C	1.9482	1.3719	2.3406
C	0.9457	7.6265	7.4730
C	4.2108	4.9046	2.3569
H	0.3633	8.0518	8.2873
C	0.4386	6.5758	6.6918
C	3.6876	5.9450	1.5694
H	5.7077	6.1769	6.9197
H	2.6982	6.3268	1.8007
C	1.2275	6.0647	5.6520
C	4.4634	6.4578	0.5203
C	5.3126	1.2438	4.7942
C	2.0502	11.2676	9.9216
C	0.7355	4.9402	4.8359
C	3.7317	7.5663	9.9569
Ni	9.1514	9.4112	8.5926
Ni	12.4281	3.1058	3.4848
O	7.7011	4.3542	3.9337
O	10.6944	8.1524	9.0546
O	10.8894	1.8473	3.8752
O	7.6178	10.6743	9.0030
O	12.0589	4.4603	4.9624
O	8.7952	8.0327	10.0675
O	6.5040	1.6926	4.9427
O	9.4900	10.8047	10.0626
N	9.9496	10.6606	7.2416
N	6.9654	1.8642	2.1170
N	8.4250	8.1441	7.2520
N	11.6930	4.3948	2.1375
C	9.7383	12.1483	5.3630
C	6.7277	0.3896	0.2292
H	9.1173	12.5181	4.5527
H	12.1225	0.0337	9.6938
C	11.0135	0.1474	5.6148
C	7.9961	12.3699	0.4741
C	11.7562	12.1502	6.6821
C	8.7513	0.3551	1.5400
H	6.5005	12.5084	6.9199
H	9.7443	12.5067	1.7734
C	8.7364	6.6337	5.4082
C	11.9808	5.9036	0.2867
H	9.3857	6.2729	4.6160
H	6.1445	6.2667	9.7662
C	9.1804	7.6810	6.2307
C	12.4411	4.8676	1.1160
H	10.1527	8.1465	6.0889
H	7.1687	4.4189	0.9763
C	9.2354	11.1359	6.1975
C	6.2424	1.4055	1.0711
H	11.5137	1.8501	0.9235
C	11.1892	11.1381	7.4751
C	8.2010	1.3719	2.3406
H	11.7384	10.7097	8.3094
C	7.1985	7.6265	7.4730
C	10.4636	4.9046	2.3569
H	9.8888	4.4774	3.1753
C	6.6914	6.5758	6.6918
C	9.9404	5.9450	1.5694
H	11.9605	6.1769	6.9197
H	8.9510	6.3268	1.8007
C	7.4803	6.0647	5.6520
C	10.7162	6.4578	0.5203
C	11.5654	1.2438	4.7942
C	8.3030	11.2676	9.9216
C	6.9883	4.9402	4.8359
C	9.9845	7.5663	9.9569
Pfg	5.9397	10.4041	8.9270
Cfg	4.7098	9.3031	9.8075
Hfg	4.4893	8.4115	9.1851
Hfg	3.7715	9.8516	10.0336
Hfg	5.1528	8.9634	10.7661
Cfg	5.7703	11.8477	10.1017
Hfg	6.3381	12.7226	9.7292
Hfg	6.1729	11.5597	11.0945
Hfg	4.7041	12.1361	10.2084
Pfg	2.9701	2.0894	3.7875
Cfg	1.7591	3.2018	4.6799
Hfg	1.5446	4.0977	4.0618
Hfg	0.8161	2.6634	4.9109
Hfg	2.2126	3.5333	5.6365
Cfg	2.7923	0.6442	4.9589
Hfg	3.3474	-0.2360	4.5798
Hfg	3.2050	0.9245	5.9498
Hfg	1.7236	0.3677	5.0722
Pfg	4.6330	8.4773	5.9180
Cfg	4.6624	9.9433	7.0800
Hfg	4.7444	9.5910	8.1288
Hfg	3.7537	10.5692	6.9580
Hfg	5.5485	10.5689	6.8476
Cfg	4.1741	9.4575	4.3945
Hfg	3.9735	8.7809	3.5409
Hfg	5.0153	10.1289	4.1253
Hfg	3.2662	10.0662	4.5855
Pfg	3.1643	4.1847	3.7847
Cfg	4.1541	2.7054	4.3613
Hfg	5.0746	3.0464	4.8783
Hfg	4.4181	2.0438	3.5099
Hfg	3.5425	2.1207	5.0786
Cfg	1.9599	3.2070	2.7425
Hfg	1.2980	3.8862	2.1706
Hfg	1.3332	2.5751	3.4049
Hfg	2.5061	2.5583	2.0269
Pfg	7.5066	10.4008	5.8599
Cfg	7.1924	9.2997	7.3395
Hfg	7.8518	8.4087	7.2928
Hfg	7.3599	9.8485	8.2898
Hfg	6.1369	8.9591	7.3168
Cfg	6.4964	11.8436	6.4846
Hfg	6.6099	12.7184	5.8150
Hfg	5.4257	11.5546	6.5127
Hfg	6.8247	12.1325	7.5044
Pfg	9.2195	2.0834	3.7929
Cfg	8.1976	3.5342	4.3853
Hfg	7.2778	3.1678	4.8858
Hfg	7.9313	4.2068	3.5433
Hfg	8.7911	4.1162	5.1199
Cfg	10.4176	3.1008	2.7821
Hfg	11.0975	2.4439	2.2052
Hfg	11.0260	3.7312	3.4628
Hfg	9.8679	3.7531	2.0724
Pfg	6.1412	8.3491	8.8894
Cfg	7.1152	9.8423	9.4570
Hfg	8.0366	9.5142	9.9806
Hfg	7.3765	10.4989	8.6009
Hfg	6.4954	10.4276	10.1668
Cfg	4.9321	9.3067	7.8340
Hfg	4.2788	8.6165	7.2654
Hfg	4.2970	9.9385	8.4884
Hfg	5.4752	9.9541	7.1149
Pfg	14.1620	4.1012	0.8098
Cfg	14.2156	2.6411	1.9783
Hfg	14.2889	2.9993	3.0257
Hfg	13.3188	1.9982	1.8572
Hfg	15.1135	2.0307	1.7505
Cfg	13.7244	3.1062	-0.7104
Hfg	13.5134	3.7753	-1.5673
Hfg	14.5782	2.4490	-0.9748
Hfg	12.8273	2.4818	-0.5186
