164

Ni	2.8986	9.4112	8.5926
Ni	6.1753	3.1058	3.4848
O	1.4483	4.3542	3.9337
O	4.4416	8.1524	9.0546
O	4.6366	1.8473	3.8752
O	1.3650	10.6743	9.0030
O	5.8061	4.4603	4.9624
O	2.5424	8.0327	10.0675
O	0.2512	1.6926	4.9427
O	3.2372	10.8047	10.0626
N	3.6968	10.6606	7.2416
N	0.7126	1.8642	2.1170
N	2.1722	8.1441	7.2520
N	5.4402	4.3948	2.1375
C	3.4855	12.1483	5.3630
C	0.4749	0.3896	0.2292
H	2.8645	12.5181	4.5527
H	5.8697	0.0337	9.6938
C	4.7607	0.1474	5.6148
C	1.7433	12.3699	0.4741
C	5.5034	12.1502	6.6821
C	2.4985	0.3551	1.5400
H	0.2477	12.5084	6.9199
H	3.4915	12.5067	1.7734
C	2.4836	6.6337	5.4082
C	5.7280	5.9036	0.2867
H	3.1329	6.2729	4.6160
H	-0.1083	6.2667	9.7662
C	2.9276	7.6810	6.2307
C	6.1883	4.8676	1.1160
C	2.9826	11.1359	6.1975
C	-0.0104	1.4055	1.0711
C	4.9364	11.1381	7.4751
C	1.9482	1.3719	2.3406
H	5.4856	10.7097	8.3094
H	2.5089	1.7921	3.1727
C	0.9457	7.6265	7.4730
C	4.2108	4.9046	2.3569
H	0.3633	8.0518	8.2873
H	3.6360	4.4774	3.1753
C	0.4386	6.5758	6.6918
C	3.6876	5.9450	1.5694
H	5.7077	6.1769	6.9197
H	2.6982	6.3268	1.8007
C	1.2275	6.0647	5.6520
C	4.4634	6.4578	0.5203
C	5.3126	1.2438	4.7942
C	2.0502	11.2676	9.9216
C	0.7355	4.9402	4.8359
C	3.7317	7.5663	9.9569
Ni	9.1514	9.4112	8.5926
Ni	12.4281	3.1058	3.4848
O	7.7011	4.3542	3.9337
O	10.6944	8.1524	9.0546
O	10.8894	1.8473	3.8752
O	7.6178	10.6743	9.0030
O	12.0589	4.4603	4.9624
O	8.7952	8.0327	10.0675
O	6.5040	1.6926	4.9427
O	9.4900	10.8047	10.0626
N	9.9496	10.6606	7.2416
N	6.9654	1.8642	2.1170
N	8.4250	8.1441	7.2520
N	11.6930	4.3948	2.1375
C	9.7383	12.1483	5.3630
C	6.7277	0.3896	0.2292
H	9.1173	12.5181	4.5527
H	12.1225	0.0337	9.6938
C	11.0135	0.1474	5.6148
C	7.9961	12.3699	0.4741
C	11.7562	12.1502	6.6821
C	8.7513	0.3551	1.5400
H	6.5005	12.5084	6.9199
H	9.7443	12.5067	1.7734
C	8.7364	6.6337	5.4082
C	11.9808	5.9036	0.2867
H	9.3857	6.2729	4.6160
H	6.1445	6.2667	9.7662
C	9.1804	7.6810	6.2307
C	12.4411	4.8676	1.1160
C	9.2354	11.1359	6.1975
C	6.2424	1.4055	1.0711
C	11.1892	11.1381	7.4751
C	8.2010	1.3719	2.3406
H	11.7384	10.7097	8.3094
H	8.7617	1.7921	3.1727
C	7.1985	7.6265	7.4730
C	10.4636	4.9046	2.3569
H	6.6161	8.0518	8.2873
H	9.8888	4.4774	3.1753
C	6.6914	6.5758	6.6918
C	9.9404	5.9450	1.5694
H	11.9605	6.1769	6.9197
H	8.9510	6.3268	1.8007
C	7.4803	6.0647	5.6520
C	10.7162	6.4578	0.5203
C	11.5654	1.2438	4.7942
C	8.3030	11.2676	9.9216
C	6.9883	4.9402	4.8359
C	9.9845	7.5663	9.9569
Ofg	1.7140	10.6390	5.9056
Cfg	1.0700	9.6469	6.6194
Cfg	-0.2914	9.3789	5.9972
Hfg	0.9265	9.9700	7.6737
Hfg	1.6687	8.7102	6.5925
Hfg	-0.9087	10.3021	6.0199
Hfg	-0.8140	8.5819	6.5670
Hfg	-0.1699	9.0483	4.9437
Ofg	-1.2716	1.9239	0.7839
Cfg	-1.8989	2.9219	1.5044
Cfg	-3.2569	3.2147	0.8860
Hfg	-2.0458	2.5951	2.5571
Hfg	-1.2856	3.8492	1.4817
Hfg	-3.8885	2.3012	0.9045
Hfg	-3.7661	4.0166	1.4611
Hfg	-3.1319	3.5493	-0.1658
Ofg	4.1787	8.2263	5.9541
Cfg	4.7659	9.2580	6.6608
Cfg	6.1268	9.5724	6.0595
Hfg	4.1287	10.1676	6.6045
Hfg	4.9021	8.9607	7.7237
Hfg	6.0123	9.8781	4.9977
Hfg	6.6038	10.4013	6.6237
Hfg	6.7820	8.6770	6.1116
Ofg	7.4504	4.3440	0.8439
Cfg	8.0547	3.3263	1.5564
Cfg	9.4224	3.0341	0.9592
Hfg	7.4343	2.4050	1.5027
Hfg	8.1832	3.6306	2.6182
Hfg	9.3158	2.7217	-0.1014
Hfg	9.9132	2.2165	1.5280
Hfg	10.0611	3.9415	1.0088
Ofg	7.9668	10.6390	5.9056
Cfg	7.3228	9.6470	6.6195
Cfg	5.9614	9.3789	5.9972
Hfg	7.9215	8.7103	6.5926
Hfg	7.1792	9.9702	7.6737
Hfg	6.0829	9.0482	4.9437
Hfg	5.4387	8.5820	6.5670
Hfg	5.3442	10.3021	6.0198
Ofg	4.9811	1.9239	0.7839
Cfg	4.3539	2.9218	1.5045
Cfg	2.9959	3.2147	0.8860
Hfg	4.9672	3.8492	1.4818
Hfg	4.2069	2.5950	2.5571
Hfg	3.1209	3.5494	-0.1658
Hfg	2.4867	4.0165	1.4611
Hfg	2.3643	2.3011	0.9044
Ofg	10.4315	8.2263	5.9541
Cfg	11.0187	9.2580	6.6608
Cfg	12.3795	9.5724	6.0595
Hfg	10.3815	10.1676	6.6045
Hfg	11.1549	8.9608	7.7237
Hfg	12.2650	9.8781	4.9977
Hfg	12.8566	10.4014	6.6236
Hfg	13.0348	8.6770	6.1116
Ofg	13.7032	4.3440	0.8439
Cfg	14.3075	3.3263	1.5564
Cfg	15.6752	3.0341	0.9592
Hfg	13.6871	2.4050	1.5027
Hfg	14.4360	3.6306	2.6182
Hfg	15.5686	2.7217	-0.1014
Hfg	16.1660	2.2164	1.5280
Hfg	16.3139	3.9415	1.0088
