180

Ni	2.8986	9.4112	8.5926
Ni	6.1753	3.1058	3.4848
O	1.4483	4.3542	3.9337
O	4.4416	8.1524	9.0546
O	4.6366	1.8473	3.8752
O	1.3650	10.6743	9.0030
O	5.8061	4.4603	4.9624
O	2.5424	8.0327	10.0675
O	0.2512	1.6926	4.9427
O	3.2372	10.8047	10.0626
N	3.6968	10.6606	7.2416
N	0.7126	1.8642	2.1170
N	2.1722	8.1441	7.2520
N	5.4402	4.3948	2.1375
C	3.4855	12.1483	5.3630
C	0.4749	0.3896	0.2292
H	2.8645	12.5181	4.5527
H	5.8697	0.0337	9.6938
C	4.7607	0.1474	5.6148
C	1.7433	12.3699	0.4741
C	5.5034	12.1502	6.6821
C	2.4985	0.3551	1.5400
H	0.2477	12.5084	6.9199
H	3.4915	12.5067	1.7734
C	2.4836	6.6337	5.4082
C	5.7280	5.9036	0.2867
H	3.1329	6.2729	4.6160
H	-0.1083	6.2667	9.7662
C	2.9276	7.6810	6.2307
C	6.1883	4.8676	1.1160
H	3.8999	8.1465	6.0889
H	0.9159	4.4189	0.9763
C	2.9826	11.1359	6.1975
C	-0.0104	1.4055	1.0711
H	1.9939	10.7090	6.0470
H	5.2609	1.8501	0.9235
C	4.9364	11.1381	7.4751
C	1.9482	1.3719	2.3406
H	2.5089	1.7921	3.1727
C	0.9457	7.6265	7.4730
C	4.2108	4.9046	2.3569
H	3.6360	4.4774	3.1753
C	0.4386	6.5758	6.6918
C	3.6876	5.9450	1.5694
H	5.7077	6.1769	6.9197
H	2.6982	6.3268	1.8007
C	1.2275	6.0647	5.6520
C	4.4634	6.4578	0.5203
C	5.3126	1.2438	4.7942
C	2.0502	11.2676	9.9216
C	0.7355	4.9402	4.8359
C	3.7317	7.5663	9.9569
Ni	9.1514	9.4112	8.5926
Ni	12.4281	3.1058	3.4848
O	7.7011	4.3542	3.9337
O	10.6944	8.1524	9.0546
O	10.8894	1.8473	3.8752
O	7.6178	10.6743	9.0030
O	12.0589	4.4603	4.9624
O	8.7952	8.0327	10.0675
O	6.5040	1.6926	4.9427
O	9.4900	10.8047	10.0626
N	9.9496	10.6606	7.2416
N	6.9654	1.8642	2.1170
N	8.4250	8.1441	7.2520
N	11.6930	4.3948	2.1375
C	9.7383	12.1483	5.3630
C	6.7277	0.3896	0.2292
H	9.1173	12.5181	4.5527
H	12.1225	0.0337	9.6938
C	11.0135	0.1474	5.6148
C	7.9961	12.3699	0.4741
C	11.7562	12.1502	6.6821
C	8.7513	0.3551	1.5400
H	6.5005	12.5084	6.9199
H	9.7443	12.5067	1.7734
C	8.7364	6.6337	5.4082
C	11.9808	5.9036	0.2867
H	9.3857	6.2729	4.6160
H	6.1445	6.2667	9.7662
C	9.1804	7.6810	6.2307
C	12.4411	4.8676	1.1160
C	9.2354	11.1359	6.1975
C	6.2424	1.4055	1.0711
H	8.2467	10.7090	6.0470
C	11.1892	11.1381	7.4751
C	8.2010	1.3719	2.3406
C	7.1985	7.6265	7.4730
C	10.4636	4.9046	2.3569
H	6.6161	8.0518	8.2873
C	6.6914	6.5758	6.6918
C	9.9404	5.9450	1.5694
H	11.9605	6.1769	6.9197
H	8.9510	6.3268	1.8007
C	7.4803	6.0647	5.6520
C	10.7162	6.4578	0.5203
C	11.5654	1.2438	4.7942
C	8.3030	11.2676	9.9216
C	6.9883	4.9402	4.8359
C	9.9845	7.5663	9.9569
C	5.7808	10.5560	8.6628
C	5.1045	9.4511	9.4927
H	6.0250	11.3887	9.3577
H	6.7194	10.1293	8.2468
C	6.0199	8.9664	10.6143
H	4.8637	8.5842	8.8396
H	4.1697	9.8428	9.9497
H	6.9596	8.5491	10.1937
H	5.5074	8.1711	11.1956
H	6.2677	9.8041	11.3006
C	-1.4249	2.0124	0.7789
C	-1.8952	3.1197	1.7378
H	-1.4135	2.4449	-0.2452
H	-2.1731	1.1917	0.8294
C	-3.2816	3.6298	1.3525
H	-1.9452	2.7229	2.7752
H	-1.1860	3.9753	1.7012
H	-4.0235	2.8041	1.3961
H	-3.5951	4.4264	2.0598
H	-3.2666	4.0528	0.3254
C	0.0552	8.2032	8.6268
C	0.6705	9.3524	9.4437
H	-0.1725	7.3782	9.3365
H	-0.8894	8.5835	8.1808
C	-0.2871	9.8278	10.5336
H	0.8927	10.2124	8.7750
H	1.6092	9.0078	9.9300
H	-1.2325	10.1986	10.0831
H	0.1818	10.6556	11.1062
H	-0.5181	8.9975	11.2346
C	7.6030	4.2543	0.8401
C	8.0447	3.1238	1.7855
H	8.3569	5.0672	0.9221
H	7.6086	3.8426	-0.1926
C	9.4343	2.6096	1.4177
H	7.3293	2.2754	1.7175
H	8.0771	3.4993	2.8315
H	9.4364	2.2075	0.3821
H	9.7269	1.7963	2.1148
H	10.1820	3.4278	1.4928
C	12.0336	10.5560	8.6628
C	11.3573	9.4511	9.4927
H	12.2778	11.3887	9.3577
H	12.9722	10.1293	8.2468
C	12.2727	8.9664	10.6143
H	11.1165	8.5842	8.8396
H	10.4225	9.8428	9.9497
H	13.2124	8.5491	10.1937
H	11.7602	8.1711	11.1956
H	12.5205	9.8041	11.3006
C	9.0604	1.9402	3.5239
C	8.4027	3.0502	4.3619
H	9.2998	1.1026	4.2146
H	10.0009	2.3574	3.1027
C	9.3313	3.5208	5.4786
H	8.1673	3.9219	3.7131
H	7.4666	2.6678	4.8243
H	10.2728	3.9286	5.0527
H	8.8320	4.3201	6.0659
H	9.5742	2.6782	6.1606
C	10.5825	8.3188	5.9496
C	11.0054	9.4612	6.8891
H	11.3512	7.5201	6.0335
H	10.5784	8.7260	4.9151
C	12.3847	9.9991	6.5160
H	10.2746	10.2962	6.8190
H	11.0469	9.0910	7.9367
H	12.3773	10.3966	5.4787
H	12.6639	10.8207	7.2090
H	13.1473	9.1950	6.5931
C	9.5816	4.3298	3.5202
C	10.2106	3.1933	4.3445
H	8.6387	3.9370	3.0813
H	9.3491	5.1588	4.2236
C	9.2616	2.7187	5.4423
H	11.1479	3.5506	4.8239
H	10.4379	2.3296	3.6823
H	9.0258	3.5529	6.1371
H	9.7403	1.9002	6.0201
H	8.3179	2.3355	4.9988
