204

Ni	2.8986	9.4112	8.5926
Ni	6.1753	3.1058	3.4848
O	1.4483	4.3542	3.9337
O	4.4416	8.1524	9.0546
O	4.6366	1.8473	3.8752
O	1.3650	10.6743	9.0030
O	5.8061	4.4603	4.9624
O	2.5424	8.0327	10.0675
O	0.2512	1.6926	4.9427
O	3.2372	10.8047	10.0626
N	3.6968	10.6606	7.2416
N	0.7126	1.8642	2.1170
N	2.1722	8.1441	7.2520
N	5.4402	4.3948	2.1375
C	3.4855	12.1483	5.3630
C	0.4749	0.3896	0.2292
H	2.8645	12.5181	4.5527
H	5.8697	0.0337	9.6938
C	4.7607	0.1474	5.6148
C	1.7433	12.3699	0.4741
C	5.5034	12.1502	6.6821
C	2.4985	0.3551	1.5400
H	0.2477	12.5084	6.9199
C	2.4836	6.6337	5.4082
C	5.7280	5.9036	0.2867
H	3.1329	6.2729	4.6160
C	2.9276	7.6810	6.2307
C	6.1883	4.8676	1.1160
H	3.8999	8.1465	6.0889
H	0.9159	4.4189	0.9763
C	2.9826	11.1359	6.1975
C	-0.0104	1.4055	1.0711
H	1.9939	10.7090	6.0470
H	5.2609	1.8501	0.9235
C	4.9364	11.1381	7.4751
C	1.9482	1.3719	2.3406
H	5.4856	10.7097	8.3094
H	2.5089	1.7921	3.1727
C	0.9457	7.6265	7.4730
C	4.2108	4.9046	2.3569
H	0.3633	8.0518	8.2873
H	3.6360	4.4774	3.1753
C	0.4386	6.5758	6.6918
C	3.6876	5.9450	1.5694
H	2.6982	6.3268	1.8007
C	1.2275	6.0647	5.6520
C	4.4634	6.4578	0.5203
C	5.3126	1.2438	4.7942
C	2.0502	11.2676	9.9216
C	0.7355	4.9402	4.8359
C	3.7317	7.5663	9.9569
Ni	9.1514	9.4112	8.5926
Ni	12.4281	3.1058	3.4848
O	7.7011	4.3542	3.9337
O	10.6944	8.1524	9.0546
O	10.8894	1.8473	3.8752
O	7.6178	10.6743	9.0030
O	12.0589	4.4603	4.9624
O	8.7952	8.0327	10.0675
O	6.5040	1.6926	4.9427
O	9.4900	10.8047	10.0626
N	9.9496	10.6606	7.2416
N	6.9654	1.8642	2.1170
N	8.4250	8.1441	7.2520
N	11.6930	4.3948	2.1375
C	9.7383	12.1483	5.3630
C	6.7277	0.3896	0.2292
H	12.1225	0.0337	9.6938
C	11.0135	0.1474	5.6148
C	7.9961	12.3699	0.4741
C	11.7562	12.1502	6.6821
C	8.7513	0.3551	1.5400
C	8.7364	6.6337	5.4082
C	11.9808	5.9036	0.2867
H	9.3857	6.2729	4.6160
C	9.1804	7.6810	6.2307
C	12.4411	4.8676	1.1160
H	10.1527	8.1465	6.0889
H	7.1687	4.4189	0.9763
C	9.2354	11.1359	6.1975
C	6.2424	1.4055	1.0711
H	8.2467	10.7090	6.0470
H	11.5137	1.8501	0.9235
C	11.1892	11.1381	7.4751
C	8.2010	1.3719	2.3406
H	11.7384	10.7097	8.3094
H	8.7617	1.7921	3.1727
C	7.1985	7.6265	7.4730
C	10.4636	4.9046	2.3569
H	6.6161	8.0518	8.2873
H	9.8888	4.4774	3.1753
C	6.6914	6.5758	6.6918
C	9.9404	5.9450	1.5694
H	8.9510	6.3268	1.8007
C	7.4803	6.0647	5.6520
C	10.7162	6.4578	0.5203
C	11.5654	1.2438	4.7942
C	8.3030	11.2676	9.9216
C	6.9883	4.9402	4.8359
C	9.9845	7.5663	9.9569
Cfg	6.9784	12.6210	7.0855
Cfg	7.5700	11.8705	8.3187
Hfg	7.6572	10.7782	8.1291
Hfg	8.5942	12.2349	8.5560
Hfg	6.9549	12.0347	9.2306
Cfg	6.9696	14.1106	7.5196
Hfg	6.3244	14.2331	8.4167
Hfg	7.9951	14.4458	7.7880
Hfg	6.5833	14.8325	6.7944
Cfg	7.9769	12.3084	5.9397
Hfg	8.0137	11.2106	5.7671
Hfg	7.7528	12.7400	4.9600
Hfg	9.0010	12.6461	6.2103
Cfg	3.9699	-0.1349	1.9333
Cfg	4.5774	0.6040	3.1659
Hfg	4.6767	1.6959	2.9795
Hfg	5.5984	0.2264	3.3960
Hfg	3.9655	0.4440	4.0806
Cfg	3.9455	-1.6258	2.3623
Hfg	3.3039	-1.7437	3.2626
Hfg	4.9683	-1.9744	2.6238
Hfg	3.5464	-2.3404	1.6368
Cfg	4.9656	0.1697	0.7830
Hfg	5.0147	1.2675	0.6141
Hfg	4.7308	-0.2556	-0.1969
Hfg	5.9870	-0.1813	1.0467
Cfg	-1.0236	6.0517	7.0725
Cfg	-1.6737	6.8024	8.2758
Hfg	-1.8020	7.8859	8.0603
Hfg	-2.6869	6.4002	8.4987
Hfg	-1.0732	6.6835	9.2042
Cfg	-0.9626	4.5732	7.5394
Hfg	-0.3334	4.4970	8.4528
Hfg	-1.9791	4.2009	7.7928
Hfg	-0.5303	3.8532	6.8388
Cfg	-2.0080	6.2977	5.8987
Hfg	-2.0865	7.3891	5.7013
Hfg	-1.7440	5.8555	4.9338
Hfg	-3.0230	5.9230	6.1543
Cfg	6.7240	6.3652	-0.8811
Cfg	8.0710	5.5787	-0.9149
Hfg	8.6471	5.7144	0.0266
Hfg	8.7235	5.9372	-1.7417
Hfg	7.9058	4.4927	-1.0884
Cfg	6.0913	6.0887	-2.2706
Hfg	5.9205	4.9967	-2.3913
Hfg	6.7735	6.4196	-3.0838
Hfg	5.1194	6.5493	-2.4695
Cfg	7.1545	7.8410	-0.6714
Hfg	7.7036	7.9354	0.2908
Hfg	6.3539	8.5839	-0.6127
Hfg	7.8353	8.1694	-1.4867
Cfg	8.7780	12.6206	4.1711
Cfg	7.4110	11.8702	4.1215
Hfg	7.5498	10.7780	3.9652
Hfg	6.7841	12.2352	3.2778
Hfg	6.8211	12.0340	5.0500
Cfg	8.3838	14.1101	4.3535
Hfg	7.8195	14.2322	5.3036
Hfg	7.7278	14.4458	3.5210
Hfg	9.2031	14.8319	4.4180
Cfg	9.4290	12.3086	2.7977
Hfg	9.5723	11.2108	2.6944
Hfg	10.4167	12.7401	2.6116
Hfg	8.7716	12.6467	1.9674
Cfg	10.2227	-0.1349	1.9333
Cfg	10.8302	0.6040	3.1659
Hfg	10.9295	1.6959	2.9795
Hfg	11.8512	0.2264	3.3960
Hfg	10.2183	0.4440	4.0806
Cfg	10.1983	-1.6258	2.3623
Hfg	9.5567	-1.7437	3.2626
Hfg	11.2211	-1.9743	2.6238
Hfg	9.7992	-2.3404	1.6368
Cfg	11.2184	0.1697	0.7830
Hfg	11.2674	1.2676	0.6141
Hfg	10.9836	-0.2556	-0.1969
Hfg	12.2398	-0.1813	1.0467
Cfg	5.2292	6.0517	7.0725
Cfg	4.5790	6.8025	8.2757
Hfg	5.1795	6.6837	9.2042
Hfg	3.5658	6.4004	8.4986
Hfg	4.4508	7.8859	8.0602
Cfg	4.2448	6.2977	5.8986
Hfg	4.1663	7.3890	5.7011
Hfg	3.2298	5.9230	6.1543
Hfg	4.5089	5.8553	4.9338
Cfg	5.2901	4.5733	7.5394
Hfg	5.9194	4.4971	8.4529
Hfg	5.7226	3.8532	6.8389
Hfg	4.2737	4.2009	7.7928
Cfg	12.9768	6.3652	-0.8811
Cfg	14.3238	5.5787	-0.9149
Hfg	14.8999	5.7144	0.0266
Hfg	14.9764	5.9373	-1.7417
Hfg	14.1586	4.4927	-1.0884
Cfg	12.3441	6.0887	-2.2706
Hfg	12.1733	4.9967	-2.3913
Hfg	13.0263	6.4196	-3.0838
Hfg	11.3722	6.5493	-2.4695
Cfg	13.4073	7.8410	-0.6714
Hfg	13.9564	7.9354	0.2908
Hfg	12.6068	8.5839	-0.6126
Hfg	14.0881	8.1694	-1.4867
