172

Ni	2.8986	9.4112	8.5926
Ni	6.1753	3.1058	3.4848
O	1.4483	4.3542	3.9337
O	4.4416	8.1524	9.0546
O	4.6366	1.8473	3.8752
O	1.3650	10.6743	9.0030
O	5.8061	4.4603	4.9624
O	2.5424	8.0327	10.0675
O	0.2512	1.6926	4.9427
O	3.2372	10.8047	10.0626
N	3.6968	10.6606	7.2416
N	0.7126	1.8642	2.1170
N	2.1722	8.1441	7.2520
N	5.4402	4.3948	2.1375
C	3.4855	12.1483	5.3630
C	0.4749	0.3896	0.2292
C	4.7607	0.1474	5.6148
C	1.7433	12.3699	0.4741
C	5.5034	12.1502	6.6821
C	2.4985	0.3551	1.5400
H	3.4915	12.5067	1.7734
C	2.4836	6.6337	5.4082
C	5.7280	5.9036	0.2867
H	3.1329	6.2729	4.6160
H	-0.1083	6.2667	9.7662
C	2.9276	7.6810	6.2307
C	6.1883	4.8676	1.1160
H	3.8999	8.1465	6.0889
H	0.9159	4.4189	0.9763
C	2.9826	11.1359	6.1975
C	-0.0104	1.4055	1.0711
H	1.9939	10.7090	6.0470
H	5.2609	1.8501	0.9235
C	4.9364	11.1381	7.4751
C	1.9482	1.3719	2.3406
H	5.4856	10.7097	8.3094
H	2.5089	1.7921	3.1727
C	0.9457	7.6265	7.4730
C	4.2108	4.9046	2.3569
H	0.3633	8.0518	8.2873
H	3.6360	4.4774	3.1753
C	0.4386	6.5758	6.6918
C	3.6876	5.9450	1.5694
H	5.7077	6.1769	6.9197
C	1.2275	6.0647	5.6520
C	4.4634	6.4578	0.5203
C	5.3126	1.2438	4.7942
C	2.0502	11.2676	9.9216
C	0.7355	4.9402	4.8359
C	3.7317	7.5663	9.9569
Ni	9.1514	9.4112	8.5926
Ni	12.4281	3.1058	3.4848
O	7.7011	4.3542	3.9337
O	10.6944	8.1524	9.0546
O	10.8894	1.8473	3.8752
O	7.6178	10.6743	9.0030
O	12.0589	4.4603	4.9624
O	8.7952	8.0327	10.0675
O	6.5040	1.6926	4.9427
O	9.4900	10.8047	10.0626
N	9.9496	10.6606	7.2416
N	6.9654	1.8642	2.1170
N	8.4250	8.1441	7.2520
N	11.6930	4.3948	2.1375
C	9.7383	12.1483	5.3630
C	6.7277	0.3896	0.2292
H	9.1173	12.5181	4.5527
C	11.0135	0.1474	5.6148
C	7.9961	12.3699	0.4741
C	11.7562	12.1502	6.6821
C	8.7513	0.3551	1.5400
H	6.5005	12.5084	6.9199
H	9.7443	12.5067	1.7734
C	8.7364	6.6337	5.4082
C	11.9808	5.9036	0.2867
H	6.1445	6.2667	9.7662
C	9.1804	7.6810	6.2307
C	12.4411	4.8676	1.1160
H	10.1527	8.1465	6.0889
H	7.1687	4.4189	0.9763
C	9.2354	11.1359	6.1975
C	6.2424	1.4055	1.0711
H	8.2467	10.7090	6.0470
H	11.5137	1.8501	0.9235
C	11.1892	11.1381	7.4751
C	8.2010	1.3719	2.3406
H	11.7384	10.7097	8.3094
H	8.7617	1.7921	3.1727
C	7.1985	7.6265	7.4730
C	10.4636	4.9046	2.3569
H	6.6161	8.0518	8.2873
H	9.8888	4.4774	3.1753
C	6.6914	6.5758	6.6918
C	9.9404	5.9450	1.5694
C	7.4803	6.0647	5.6520
C	10.7162	6.4578	0.5203
C	11.5654	1.2438	4.7942
C	8.3030	11.2676	9.9216
C	6.9883	4.9402	4.8359
C	9.9845	7.5663	9.9569
Nfg	2.6497	12.5629	4.2416
Cfg	1.2067	12.6783	4.3833
Hfg	0.8732	12.5478	5.4335
Hfg	0.8841	13.6917	4.0642
Hfg	0.7012	11.9209	3.7472
Cfg	3.2009	12.7077	2.9037
Hfg	4.2881	12.4882	2.8720
Hfg	2.7121	11.9793	2.2228
Hfg	3.0015	13.7281	2.5131
Nfg	-0.4099	-0.0723	-0.8345
Cfg	-1.2423	0.8614	-1.5768
Hfg	-1.0186	1.9188	-1.3261
Hfg	-1.0550	0.7392	-2.6643
Hfg	-2.3151	0.6605	-1.3698
Cfg	-0.6222	-1.4906	-1.0757
Hfg	-0.0312	-2.1266	-0.3848
Hfg	-1.6898	-1.7390	-0.8979
Hfg	-0.3837	-1.7418	-2.1310
Nfg	-0.9098	6.1122	6.9879
Cfg	-1.3828	6.0072	8.3593
Hfg	-0.5763	6.1874	9.0997
Hfg	-1.7660	4.9810	8.5404
Hfg	-2.2030	6.7356	8.5346
Cfg	-1.8851	5.9039	5.9295
Hfg	-1.4661	6.1188	4.9248
Hfg	-2.7377	6.6011	6.0715
Hfg	-2.2809	4.8669	5.9689
Nfg	2.3357	6.3957	1.8714
Cfg	1.8705	6.5057	3.2451
Hfg	2.6838	6.3400	3.9815
Hfg	1.4771	7.5290	3.4211
Hfg	1.0596	5.7696	3.4312
Cfg	1.3513	6.5852	0.8180
Hfg	1.7661	6.3674	-0.1878
Hfg	0.5074	5.8798	0.9707
Hfg	0.9442	7.6180	0.8523
Nfg	13.0798	12.6297	7.0577
Cfg	14.1041	11.7121	7.5314
Hfg	13.7956	10.6502	7.4401
Hfg	15.0228	11.8366	6.9204
Hfg	14.3447	11.9280	8.5942
Cfg	13.3714	14.0521	7.1381
Hfg	12.4944	14.6759	6.8682
Hfg	13.6360	14.3155	8.1839
Hfg	14.2386	14.3048	6.4918
Nfg	5.8429	-0.0723	-0.8345
Cfg	5.0105	0.8614	-1.5768
Hfg	5.2342	1.9188	-1.3261
Hfg	5.1978	0.7392	-2.6643
Hfg	3.9377	0.6605	-1.3698
Cfg	5.6306	-1.4906	-1.0757
Hfg	6.2216	-2.1266	-0.3848
Hfg	4.5630	-1.7390	-0.8979
Hfg	5.8691	-1.7418	-2.1310
Nfg	9.6464	6.1698	4.3682
Cfg	10.4636	7.1070	3.6135
Hfg	10.2086	8.1639	3.8349
Hfg	10.2940	6.9531	2.5270
Hfg	11.5385	6.9401	3.8389
Cfg	9.8995	4.7522	4.1651
Hfg	9.3165	4.1178	4.8641
Hfg	10.9709	4.5371	4.3625
Hfg	9.6818	4.4688	3.1135
Nfg	8.6266	6.4600	1.9310
Cfg	7.5672	5.5680	2.3757
Hfg	7.8445	4.4985	2.2740
Hfg	6.6626	5.7293	1.7524
Hfg	7.3165	5.7765	3.4376
Cfg	8.3775	7.8895	2.0273
Hfg	9.2774	8.4896	1.7799
Hfg	8.1045	8.1465	3.0725
Hfg	7.5289	8.1778	1.3713
