172

Ni	2.8986	9.4112	8.5926
Ni	6.1753	3.1058	3.4848
O	1.4483	4.3542	3.9337
O	4.4416	8.1524	9.0546
O	4.6366	1.8473	3.8752
O	1.3650	10.6743	9.0030
O	5.8061	4.4603	4.9624
O	2.5424	8.0327	10.0675
O	0.2512	1.6926	4.9427
O	3.2372	10.8047	10.0626
N	3.6968	10.6606	7.2416
N	0.7126	1.8642	2.1170
N	2.1722	8.1441	7.2520
N	5.4402	4.3948	2.1375
C	3.4855	12.1483	5.3630
C	0.4749	0.3896	0.2292
H	2.8645	12.5181	4.5527
H	5.8697	0.0337	9.6938
C	4.7607	0.1474	5.6148
C	1.7433	12.3699	0.4741
C	5.5034	12.1502	6.6821
C	2.4985	0.3551	1.5400
H	0.2477	12.5084	6.9199
H	3.4915	12.5067	1.7734
C	2.4836	6.6337	5.4082
C	5.7280	5.9036	0.2867
H	3.1329	6.2729	4.6160
H	-0.1083	6.2667	9.7662
C	2.9276	7.6810	6.2307
C	6.1883	4.8676	1.1160
H	3.8999	8.1465	6.0889
C	2.9826	11.1359	6.1975
C	-0.0104	1.4055	1.0711
H	1.9939	10.7090	6.0470
H	5.2609	1.8501	0.9235
C	4.9364	11.1381	7.4751
C	1.9482	1.3719	2.3406
H	2.5089	1.7921	3.1727
C	0.9457	7.6265	7.4730
C	4.2108	4.9046	2.3569
H	3.6360	4.4774	3.1753
C	0.4386	6.5758	6.6918
C	3.6876	5.9450	1.5694
H	5.7077	6.1769	6.9197
H	2.6982	6.3268	1.8007
C	1.2275	6.0647	5.6520
C	4.4634	6.4578	0.5203
C	5.3126	1.2438	4.7942
C	2.0502	11.2676	9.9216
C	0.7355	4.9402	4.8359
C	3.7317	7.5663	9.9569
Ni	9.1514	9.4112	8.5926
Ni	12.4281	3.1058	3.4848
O	7.7011	4.3542	3.9337
O	10.6944	8.1524	9.0546
O	10.8894	1.8473	3.8752
O	7.6178	10.6743	9.0030
O	12.0589	4.4603	4.9624
O	8.7952	8.0327	10.0675
O	6.5040	1.6926	4.9427
O	9.4900	10.8047	10.0626
N	9.9496	10.6606	7.2416
N	6.9654	1.8642	2.1170
N	8.4250	8.1441	7.2520
N	11.6930	4.3948	2.1375
C	9.7383	12.1483	5.3630
C	6.7277	0.3896	0.2292
H	9.1173	12.5181	4.5527
H	12.1225	0.0337	9.6938
C	11.0135	0.1474	5.6148
C	7.9961	12.3699	0.4741
C	11.7562	12.1502	6.6821
C	8.7513	0.3551	1.5400
H	6.5005	12.5084	6.9199
H	9.7443	12.5067	1.7734
C	8.7364	6.6337	5.4082
C	11.9808	5.9036	0.2867
H	9.3857	6.2729	4.6160
H	6.1445	6.2667	9.7662
C	9.1804	7.6810	6.2307
C	12.4411	4.8676	1.1160
C	9.2354	11.1359	6.1975
C	6.2424	1.4055	1.0711
C	11.1892	11.1381	7.4751
C	8.2010	1.3719	2.3406
H	11.7384	10.7097	8.3094
C	7.1985	7.6265	7.4730
C	10.4636	4.9046	2.3569
H	6.6161	8.0518	8.2873
H	9.8888	4.4774	3.1753
C	6.6914	6.5758	6.6918
C	9.9404	5.9450	1.5694
H	11.9605	6.1769	6.9197
H	8.9510	6.3268	1.8007
C	7.4803	6.0647	5.6520
C	10.7162	6.4578	0.5203
C	11.5654	1.2438	4.7942
C	8.3030	11.2676	9.9216
C	6.9883	4.9402	4.8359
C	9.9845	7.5663	9.9569
N	5.6668	10.5804	8.6420
C	5.5675	9.1657	8.9651
H	5.0309	8.5900	8.1829
H	6.5868	8.7326	9.0447
H	5.0419	9.0339	9.9348
C	6.3440	11.4367	9.6026
H	6.2689	12.5105	9.3332
H	5.8633	11.3267	10.5976
H	7.4089	11.1373	9.7022
N	-1.3605	1.9864	0.8749
C	-1.5931	3.4038	1.1037
H	-0.6519	3.9630	1.2845
H	-2.0678	3.8501	0.2046
H	-2.2680	3.5417	1.9751
C	-2.5262	1.1506	0.6353
H	-2.2672	0.0727	0.5897
H	-3.2427	1.2676	1.4755
H	-3.0397	1.4641	-0.2983
N	0.1705	8.1827	8.6091
C	0.2088	9.6074	8.8997
H	0.7404	10.1847	8.1153
H	-0.8276	10.0027	8.9471
H	0.7075	9.7820	9.8768
C	-0.4948	7.3237	9.5756
H	-0.3730	6.2476	9.3341
H	-0.0408	7.4755	10.5776
H	-1.5722	7.5842	9.6453
N	7.5369	4.2789	0.9353
C	7.7530	2.8552	1.1398
H	6.8038	2.3007	1.2905
H	8.2420	2.4230	0.2415
H	8.4091	2.6938	2.0216
C	8.7141	5.1091	0.7360
H	8.4650	6.1900	0.7072
H	9.4125	4.9689	1.5878
H	9.2436	4.8101	-0.1934
N	7.9159	10.5112	5.9392
C	7.0526	10.1285	7.0455
H	7.4359	10.4848	8.0238
H	6.0492	10.5828	6.9053
H	6.9474	9.0232	7.0799
C	7.5164	10.0890	4.6061
H	8.2888	10.3204	3.8439
H	7.3810	8.9869	4.5936
H	6.5478	10.5559	4.3282
N	8.9460	1.9172	3.5039
C	8.8652	3.3319	3.8319
H	8.3299	3.9162	3.0553
H	9.8899	3.7531	3.9058
H	8.3479	3.4667	4.8057
C	9.6199	1.0501	4.4571
H	9.5306	-0.0218	4.1850
H	9.1475	1.1625	5.4557
H	10.6888	1.3370	4.5502
N	10.5170	8.2934	6.0450
C	10.7076	9.7217	6.2429
H	9.7487	10.2594	6.3932
H	11.1867	10.1588	5.3417
H	11.3625	9.8988	7.1225
C	11.7087	7.4839	5.8468
H	11.4793	6.3986	5.8232
H	12.4063	7.6405	6.6964
H	12.2308	7.7885	4.9150
N	13.7897	4.2789	0.9353
C	14.0058	2.8552	1.1398
H	13.0566	2.3007	1.2905
H	14.4948	2.4229	0.2415
H	14.6619	2.6938	2.0216
C	14.9669	5.1091	0.7360
H	14.7178	6.1900	0.7072
H	15.6653	4.9689	1.5878
H	15.4964	4.8101	-0.1934
