164

Ni	2.8986	9.4112	8.5926
Ni	6.1753	3.1058	3.4848
O	1.4483	4.3542	3.9337
O	4.4416	8.1524	9.0546
O	4.6366	1.8473	3.8752
O	1.3650	10.6743	9.0030
O	5.8061	4.4603	4.9624
O	2.5424	8.0327	10.0675
O	0.2512	1.6926	4.9427
O	3.2372	10.8047	10.0626
N	3.6968	10.6606	7.2416
N	0.7126	1.8642	2.1170
N	2.1722	8.1441	7.2520
N	5.4402	4.3948	2.1375
C	3.4855	12.1483	5.3630
C	0.4749	0.3896	0.2292
C	4.7607	0.1474	5.6148
C	1.7433	12.3699	0.4741
C	5.5034	12.1502	6.6821
C	2.4985	0.3551	1.5400
C	2.4836	6.6337	5.4082
C	5.7280	5.9036	0.2867
H	3.1329	6.2729	4.6160
C	2.9276	7.6810	6.2307
C	6.1883	4.8676	1.1160
H	3.8999	8.1465	6.0889
H	0.9159	4.4189	0.9763
C	2.9826	11.1359	6.1975
C	-0.0104	1.4055	1.0711
H	1.9939	10.7090	6.0470
H	5.2609	1.8501	0.9235
C	4.9364	11.1381	7.4751
C	1.9482	1.3719	2.3406
H	5.4856	10.7097	8.3094
H	2.5089	1.7921	3.1727
C	0.9457	7.6265	7.4730
C	4.2108	4.9046	2.3569
H	0.3633	8.0518	8.2873
H	3.6360	4.4774	3.1753
C	0.4386	6.5758	6.6918
C	3.6876	5.9450	1.5694
H	2.6982	6.3268	1.8007
C	1.2275	6.0647	5.6520
C	4.4634	6.4578	0.5203
C	5.3126	1.2438	4.7942
C	2.0502	11.2676	9.9216
C	0.7355	4.9402	4.8359
C	3.7317	7.5663	9.9569
Ni	9.1514	9.4112	8.5926
Ni	12.4281	3.1058	3.4848
O	7.7011	4.3542	3.9337
O	10.6944	8.1524	9.0546
O	10.8894	1.8473	3.8752
O	7.6178	10.6743	9.0030
O	12.0589	4.4603	4.9624
O	8.7952	8.0327	10.0675
O	6.5040	1.6926	4.9427
O	9.4900	10.8047	10.0626
N	9.9496	10.6606	7.2416
N	6.9654	1.8642	2.1170
N	8.4250	8.1441	7.2520
N	11.6930	4.3948	2.1375
C	9.7383	12.1483	5.3630
C	6.7277	0.3896	0.2292
H	9.1173	12.5181	4.5527
H	12.1225	0.0337	9.6938
C	11.0135	0.1474	5.6148
C	7.9961	12.3699	0.4741
C	11.7562	12.1502	6.6821
C	8.7513	0.3551	1.5400
H	6.5005	12.5084	6.9199
H	9.7443	12.5067	1.7734
C	8.7364	6.6337	5.4082
C	11.9808	5.9036	0.2867
H	9.3857	6.2729	4.6160
C	9.1804	7.6810	6.2307
C	12.4411	4.8676	1.1160
H	10.1527	8.1465	6.0889
H	7.1687	4.4189	0.9763
C	9.2354	11.1359	6.1975
C	6.2424	1.4055	1.0711
H	8.2467	10.7090	6.0470
H	11.5137	1.8501	0.9235
C	11.1892	11.1381	7.4751
C	8.2010	1.3719	2.3406
H	11.7384	10.7097	8.3094
H	8.7617	1.7921	3.1727
C	7.1985	7.6265	7.4730
C	10.4636	4.9046	2.3569
H	6.6161	8.0518	8.2873
H	9.8888	4.4774	3.1753
C	6.6914	6.5758	6.6918
C	9.9404	5.9450	1.5694
H	8.9510	6.3268	1.8007
C	7.4803	6.0647	5.6520
C	10.7162	6.4578	0.5203
C	11.5654	1.2438	4.7942
C	8.3030	11.2676	9.9216
C	6.9883	4.9402	4.8359
C	9.9845	7.5663	9.9569
Ofg	2.7520	12.6294	4.3131
Cfg	1.4871	12.2071	3.9524
Cfg	1.0213	12.9889	2.7341
Hfg	1.5061	11.1244	3.6995
Hfg	0.7750	12.3846	4.7878
Hfg	1.7169	12.8200	1.8847
Hfg	0.0046	12.6536	2.4393
Hfg	0.9892	14.0743	2.9679
Ofg	3.7481	-0.1407	1.7835
Cfg	4.5949	0.2683	2.7955
Cfg	5.8883	-0.5283	2.7252
Hfg	4.8310	1.3487	2.6795
Hfg	4.1174	0.0927	3.7843
Hfg	6.3852	-0.3617	1.7458
Hfg	6.5734	-0.2038	3.5366
Hfg	5.6750	-1.6118	2.8453
Ofg	-0.7992	6.0488	6.9265
Cfg	-1.6750	6.4572	7.9138
Cfg	-2.9430	5.6208	7.8425
Hfg	-1.9408	7.5269	7.7667
Hfg	-1.2096	6.3206	8.9144
Hfg	-3.4277	5.7481	6.8512
Hfg	-3.6511	5.9447	8.6341
Hfg	-2.6999	4.5475	7.9934
Ofg	6.4948	6.3784	-0.7433
Cfg	7.7546	5.9265	-1.0857
Cfg	8.2646	6.7110	-2.2843
Hfg	8.4550	6.0738	-0.2346
Hfg	7.7113	4.8481	-1.3534
Hfg	8.3215	7.7921	-2.0354
Hfg	9.2774	6.3521	-2.5643
Hfg	7.5812	6.5722	-3.1489
Ofg	13.0104	12.6300	6.9344
Cfg	13.8465	12.2073	7.9497
Cfg	15.1498	12.9884	7.8895
Hfg	14.0701	11.1245	7.8312
Hfg	13.3655	12.3851	8.9364
Hfg	15.6502	12.8192	6.9123
Hfg	15.8263	12.6528	8.7036
Hfg	14.9489	14.0740	8.0123
Ofg	5.9837	-0.0748	-0.8206
Cfg	4.7241	0.3685	-1.1749
Cfg	4.2427	-0.3998	-2.3957
Hfg	4.0121	0.1973	-0.3381
Hfg	4.7587	1.4521	-1.4222
Hfg	4.1949	-1.4858	-2.1675
Hfg	3.2302	-0.0476	-2.6854
Hfg	4.9380	-0.2370	-3.2465
Ofg	5.4536	6.0488	6.9265
Cfg	4.5778	6.4573	7.9137
Cfg	3.3098	5.6208	7.8425
Hfg	5.0432	6.3207	8.9144
Hfg	4.3120	7.5270	7.7666
Hfg	3.5529	4.5475	7.9935
Hfg	2.6016	5.9447	8.6340
Hfg	2.8251	5.7481	6.8511
Ofg	12.7476	6.3784	-0.7432
Cfg	14.0074	5.9266	-1.0856
Cfg	14.5175	6.7111	-2.2843
Hfg	13.9642	4.8481	-1.3533
Hfg	14.7078	6.0739	-0.2346
Hfg	13.8341	6.5721	-3.1489
Hfg	15.5303	6.3521	-2.5643
Hfg	14.5742	7.7921	-2.0355
