164

Ni	2.8986	9.4112	8.5926
Ni	6.1753	3.1058	3.4848
O	1.4483	4.3542	3.9337
O	4.4416	8.1524	9.0546
O	4.6366	1.8473	3.8752
O	1.3650	10.6743	9.0030
O	5.8061	4.4603	4.9624
O	2.5424	8.0327	10.0675
O	0.2512	1.6926	4.9427
O	3.2372	10.8047	10.0626
N	3.6968	10.6606	7.2416
N	0.7126	1.8642	2.1170
N	2.1722	8.1441	7.2520
N	5.4402	4.3948	2.1375
C	3.4855	12.1483	5.3630
C	0.4749	0.3896	0.2292
H	2.8645	12.5181	4.5527
C	4.7607	0.1474	5.6148
C	1.7433	12.3699	0.4741
C	5.5034	12.1502	6.6821
C	2.4985	0.3551	1.5400
H	0.2477	12.5084	6.9199
H	3.4915	12.5067	1.7734
C	2.4836	6.6337	5.4082
C	5.7280	5.9036	0.2867
C	2.9276	7.6810	6.2307
C	6.1883	4.8676	1.1160
H	3.8999	8.1465	6.0889
H	0.9159	4.4189	0.9763
C	2.9826	11.1359	6.1975
C	-0.0104	1.4055	1.0711
H	1.9939	10.7090	6.0470
H	5.2609	1.8501	0.9235
C	4.9364	11.1381	7.4751
C	1.9482	1.3719	2.3406
H	5.4856	10.7097	8.3094
H	2.5089	1.7921	3.1727
C	0.9457	7.6265	7.4730
C	4.2108	4.9046	2.3569
H	0.3633	8.0518	8.2873
H	3.6360	4.4774	3.1753
C	0.4386	6.5758	6.6918
C	3.6876	5.9450	1.5694
H	2.6982	6.3268	1.8007
C	1.2275	6.0647	5.6520
C	4.4634	6.4578	0.5203
C	5.3126	1.2438	4.7942
C	2.0502	11.2676	9.9216
C	0.7355	4.9402	4.8359
C	3.7317	7.5663	9.9569
Ni	9.1514	9.4112	8.5926
Ni	12.4281	3.1058	3.4848
O	7.7011	4.3542	3.9337
O	10.6944	8.1524	9.0546
O	10.8894	1.8473	3.8752
O	7.6178	10.6743	9.0030
O	12.0589	4.4603	4.9624
O	8.7952	8.0327	10.0675
O	6.5040	1.6926	4.9427
O	9.4900	10.8047	10.0626
N	9.9496	10.6606	7.2416
N	6.9654	1.8642	2.1170
N	8.4250	8.1441	7.2520
N	11.6930	4.3948	2.1375
C	9.7383	12.1483	5.3630
C	6.7277	0.3896	0.2292
C	11.0135	0.1474	5.6148
C	7.9961	12.3699	0.4741
C	11.7562	12.1502	6.6821
C	8.7513	0.3551	1.5400
H	9.7443	12.5067	1.7734
C	8.7364	6.6337	5.4082
C	11.9808	5.9036	0.2867
H	9.3857	6.2729	4.6160
C	9.1804	7.6810	6.2307
C	12.4411	4.8676	1.1160
H	10.1527	8.1465	6.0889
H	7.1687	4.4189	0.9763
C	9.2354	11.1359	6.1975
C	6.2424	1.4055	1.0711
H	8.2467	10.7090	6.0470
H	11.5137	1.8501	0.9235
C	11.1892	11.1381	7.4751
C	8.2010	1.3719	2.3406
H	11.7384	10.7097	8.3094
H	8.7617	1.7921	3.1727
C	7.1985	7.6265	7.4730
C	10.4636	4.9046	2.3569
H	6.6161	8.0518	8.2873
H	9.8888	4.4774	3.1753
C	6.6914	6.5758	6.6918
C	9.9404	5.9450	1.5694
H	11.9605	6.1769	6.9197
H	8.9510	6.3268	1.8007
C	7.4803	6.0647	5.6520
C	10.7162	6.4578	0.5203
C	11.5654	1.2438	4.7942
C	8.3030	11.2676	9.9216
C	6.9883	4.9402	4.8359
C	9.9845	7.5663	9.9569
O	6.7576	12.6300	6.9344
C	7.5937	12.2073	7.9497
C	8.8970	12.9884	7.8895
H	7.8173	11.1245	7.8312
H	7.1127	12.3851	8.9364
H	9.3974	12.8192	6.9123
H	9.5735	12.6528	8.7036
H	8.6961	14.0740	8.0123
O	-0.2691	-0.0748	-0.8206
C	-1.5287	0.3685	-1.1749
C	-2.0101	-0.3998	-2.3957
H	-1.4942	1.4521	-1.4221
H	-2.2407	0.1972	-0.3381
H	-1.3148	-0.2369	-3.2465
H	-3.0227	-0.0477	-2.6854
H	-2.0578	-1.4858	-2.1676
O	3.2528	6.1639	4.3804
C	4.5047	6.6320	4.0311
C	5.0227	5.8472	2.8360
H	5.2099	6.5007	4.8808
H	4.4447	7.7079	3.7564
H	5.0962	4.7688	3.0917
H	6.0292	6.2192	2.5504
H	4.3346	5.9703	1.9726
O	6.4948	6.3784	-0.7433
C	7.7546	5.9265	-1.0857
C	8.2646	6.7110	-2.2843
H	8.4550	6.0738	-0.2346
H	7.7113	4.8481	-1.3534
H	8.3215	7.7921	-2.0354
H	9.2774	6.3521	-2.5643
H	7.5812	6.5722	-3.1489
O	9.0048	12.6294	4.3131
C	7.7399	12.2070	3.9524
C	7.2741	12.9889	2.7341
H	7.0278	12.3845	4.7878
H	7.7590	11.1244	3.6994
H	7.2419	14.0743	2.9679
H	6.2574	12.6536	2.4393
H	7.9697	12.8201	1.8847
O	5.9837	-0.0748	-0.8206
C	4.7241	0.3685	-1.1749
C	4.2427	-0.3998	-2.3957
H	4.0121	0.1973	-0.3381
H	4.7587	1.4521	-1.4222
H	4.1949	-1.4858	-2.1675
H	3.2302	-0.0476	-2.6854
H	4.9380	-0.2370	-3.2465
O	5.4536	6.0488	6.9265
C	4.5778	6.4573	7.9137
C	3.3098	5.6208	7.8425
H	5.0432	6.3207	8.9144
H	4.3120	7.5270	7.7666
H	3.5529	4.5475	7.9935
H	2.6016	5.9447	8.6340
H	2.8251	5.7481	6.8511
O	12.7476	6.3784	-0.7432
C	14.0074	5.9266	-1.0856
C	14.5175	6.7111	-2.2843
H	13.9642	4.8481	-1.3533
H	14.7078	6.0739	-0.2346
H	13.8341	6.5721	-3.1489
H	15.5303	6.3521	-2.5643
H	14.5742	7.7921	-2.0355
