140

Ni	3.1715	9.5250	9.0952
Ni	6.4889	2.8199	3.6472
O	1.0607	4.3877	4.1070
O	4.6393	8.4308	9.2599
O	5.0368	1.7517	3.7696
O	1.7502	10.6367	9.2768
O	6.1474	3.8005	5.0736
O	3.0531	8.4340	0.2216
O	-0.0113	2.1669	5.3117
O	3.9154	10.8346	0.0392
N	3.8701	10.6385	7.5728
N	0.5791	1.9360	2.6401
N	2.2916	8.1893	7.8172
N	5.7172	4.2632	2.4373
C	3.9436	11.6191	5.3135
C	0.8560	0.8078	0.4488
H	3.5048	11.6818	4.3400
H	6.2190	0.4931	9.3689
C	5.1325	12.3604	5.5902
C	2.0054	0.0566	0.8481
C	5.6739	12.1583	6.8621
C	2.4926	0.3972	2.1387
H	12.3390	0.2697	7.4064
H	3.4829	0.0652	2.4024
C	2.1033	7.0725	5.6159
C	6.0064	5.9147	0.5996
H	2.4588	7.0477	4.5951
H	11.6901	5.4650	9.4405
C	2.8538	7.8280	6.6075
C	6.4806	4.8089	1.4160
H	3.8371	8.1940	6.3494
C	3.2288	10.9032	6.3755
C	0.0656	1.5704	1.4097
C	5.0364	11.2948	7.8154
C	1.8185	1.3978	2.9912
H	5.4158	11.2308	8.7924
C	1.0420	7.6462	8.1184
C	4.5072	4.8831	2.7243
C	0.4170	6.6326	7.2475
C	4.0488	6.0437	1.9764
H	5.7450	5.9589	6.6227
H	3.0924	6.4838	2.2276
C	0.9577	6.3018	5.9751
C	4.7861	6.5769	0.8879
C	5.7517	0.9363	4.6051
C	2.4390	11.3966	10.1803
C	0.3426	5.1265	5.0032
C	4.2486	7.8312	0.0409
Ni	8.8305	9.1716	8.6829
Ni	12.1606	3.2621	3.9044
O	7.9630	3.8440	3.8669
O	10.2572	8.0868	8.8788
O	10.7125	2.1637	4.0427
O	7.3689	10.2276	8.8166
O	11.6175	4.5384	5.1100
O	8.2446	7.8297	9.7553
O	6.9920	1.4728	4.7558
O	9.1172	10.1358	10.1213
N	9.6921	10.5900	7.5199
N	7.1128	1.7707	2.1022
N	8.2774	8.1470	7.1108
N	11.4619	4.3884	2.3746
C	9.5344	12.1713	5.6181
C	6.7325	0.3897	0.1138
H	9.0148	12.4373	4.7189
H	0.2977	0.7600	9.6963
C	10.7232	0.3326	5.9700
C	7.7992	12.0471	0.4457
C	11.3880	12.3609	7.1259
C	8.5808	12.4336	1.5420
H	6.5810	0.1540	7.1401
H	9.4346	11.8364	1.8367
C	8.9543	6.3018	5.6798
C	11.4547	5.3974	0.1287
H	9.7731	5.7163	5.4064
H	6.3505	6.2119	10.0078
C	9.2072	7.5720	6.2791
C	12.1374	4.6678	1.2003
H	7.4326	4.3582	1.1746
C	9.0123	11.0898	6.4233
C	6.3120	1.4233	1.0290
H	8.0750	10.6370	6.1332
H	11.5970	1.9335	1.1127
C	10.8808	11.2177	7.8780
C	8.2905	1.0962	2.2598
H	8.9032	1.3483	3.0759
C	6.9950	7.6652	7.0586
C	10.2779	5.0547	2.5855
H	6.2236	8.1804	7.5882
H	9.8301	4.9741	3.5212
C	6.6880	6.4329	6.4092
C	9.7209	5.9888	1.6549
H	11.9297	6.2838	7.4776
H	8.8557	6.5712	1.9447
C	7.6609	5.7573	5.6399
C	10.2809	6.1684	0.3892
C	11.3063	1.5605	5.1072
C	7.9619	10.7556	9.9258
C	7.3344	4.3854	4.9530
C	9.4902	7.2815	9.6688
O	1.8472	10.8083	6.3238
C	1.4049	10.2084	5.1234
H	0.9749	10.9904	4.4624
H	0.6033	9.4893	5.3731
H	2.1862	9.6519	4.5549
O	2.5926	2.0912	3.8962
C	2.4741	1.6743	5.2390
H	3.4553	1.6045	5.7046
H	1.8912	0.7406	5.3889
H	2.1009	2.5114	5.8584
O	0.2266	8.3305	8.9926
C	0.5592	7.9132	0.0627
H	12.0787	7.8305	0.5132
H	0.9173	8.7503	0.6894
H	1.1400	6.9795	0.2212
O	3.6201	4.2686	3.5714
C	3.7833	4.7007	4.9049
H	2.8460	4.7934	5.4054
H	4.0704	3.8689	5.5625
H	4.3595	5.6419	5.0223
O	11.7413	10.5823	8.7437
C	11.5108	10.9268	10.0956
H	0.1529	11.0118	0.3704
H	11.4225	10.0437	0.3953
H	10.8819	11.8339	10.2592
O	5.0861	2.0400	0.8502
C	4.8271	2.7115	9.8768
H	4.3476	2.0590	9.1159
H	4.2106	3.6245	9.9750
H	5.8263	3.0439	9.5051
O	10.4016	8.2170	6.0323
C	10.3907	8.7103	4.7041
H	10.8999	7.9847	4.0341
H	10.9533	9.6630	4.6697
H	9.3752	8.9415	4.2983
O	1.0148	4.5819	1.1905
C	1.4989	3.9758	0.0094
H	1.7535	4.7494	9.6495
H	2.2712	3.2368	0.2936
H	0.5054	3.4420	9.6735
