156

Ni	3.1437	9.4527	9.0192
Ni	6.4562	2.8157	3.5298
O	1.5719	4.5891	3.6254
O	4.6257	8.4940	9.2670
O	4.9100	1.8817	3.7306
O	1.6234	10.4367	9.1579
O	6.0893	3.9625	4.7696
O	2.9006	8.2237	0.0099
O	0.2972	2.4615	4.6208
O	3.7020	10.6751	0.0682
N	3.9292	10.7119	7.6262
N	0.8540	2.3234	2.0625
N	2.5168	8.2018	7.5775
N	5.7991	4.1595	2.1764
C	4.2436	11.5434	5.3099
C	0.5198	0.5468	0.3870
H	4.0393	11.4132	4.2552
C	4.9069	0.1835	5.7480
C	1.8191	12.4626	0.6458
C	5.0811	0.3084	7.1589
C	2.5566	0.5647	1.6776
H	3.5138	0.1521	1.9690
C	2.8450	6.8552	5.5182
C	6.1419	6.3092	1.0585
C	3.3561	7.6548	6.6251
C	6.5417	5.2979	1.9668
H	4.3926	7.9551	6.6154
H	0.8150	4.2891	0.3304
C	3.7102	10.5921	6.2519
C	0.1133	1.7660	1.0701
H	2.9443	9.9395	5.8829
H	6.8302	12.2899	3.2317
C	4.7935	11.7067	8.0190
C	2.0205	1.6795	2.4233
H	5.2133	11.6776	9.0107
H	2.5210	1.9870	3.3263
C	1.1812	7.9285	7.4731
C	4.4898	4.1930	1.7315
H	0.5301	8.2848	8.2419
H	3.8578	3.3501	1.9028
C	0.6446	7.1549	6.3853
C	3.9372	5.3638	1.0588
H	2.8918	5.3767	0.7912
C	1.4780	6.4353	5.5158
C	4.7615	6.4717	0.7108
C	5.5555	1.1965	4.7312
C	2.2109	11.1630	10.1564
C	0.8691	5.3329	4.5275
C	3.9539	7.7610	10.2059
Ni	9.2431	9.5723	8.0664
Ni	0.0510	3.6355	3.3323
O	8.0291	3.7412	3.7251
O	10.7746	8.6148	8.2239
O	10.9880	2.6676	3.3720
O	7.7088	10.5363	8.2660
O	12.0892	4.8702	4.5741
O	8.9092	8.4174	9.3799
O	6.8370	1.6097	4.8045
O	9.6469	10.7731	9.3026
N	9.9121	10.8454	6.6064
N	7.0797	1.5427	2.0842
N	8.5303	8.2448	6.7416
N	12.0004	4.9179	1.8798
C	9.5983	0.2219	5.0183
C	7.4158	11.7559	1.2217
H	8.9549	0.7148	4.3147
C	10.9589	0.6280	5.0929
C	7.9661	12.2300	0.0015
C	11.7864	12.3435	5.8981
C	7.8262	1.1148	10.1365
H	8.2177	1.5329	9.2220
C	9.0714	6.3513	5.2704
C	11.6981	5.8225	9.8606
H	9.8837	5.7336	4.9684
C	9.3644	7.6493	5.8246
C	0.0229	4.9683	0.6081
H	10.2959	8.1305	5.5732
H	7.5656	5.3341	2.2805
C	9.0761	11.6418	5.8336
C	7.0484	0.1654	2.2662
H	8.0147	11.4336	5.8129
H	11.6329	2.1661	0.9080
C	11.2692	11.1257	6.5377
C	7.6200	2.0097	0.9068
H	11.9436	10.4857	7.0767
H	7.7539	3.0679	0.7706
C	7.2949	7.6412	6.9669
C	11.0119	5.8328	2.1726
H	6.5814	8.1499	7.5897
H	10.3608	5.6464	2.9878
C	6.9699	6.3267	6.4126
C	10.7345	6.9540	1.3315
H	12.0916	7.1052	6.2447
H	10.0916	7.7416	1.7011
C	7.8048	5.7573	5.4297
C	10.8697	6.9346	10.2497
C	11.5503	1.9631	4.3954
C	8.3873	11.2543	9.2106
C	7.3523	4.4294	4.6979
C	10.1637	7.9282	9.2260
C	5.3158	1.6719	7.7699
C	4.5609	1.8764	9.0931
H	4.9537	2.4562	7.0728
H	6.4006	1.8295	7.9086
H	3.4656	1.7861	8.9331
H	4.7732	2.8755	9.5015
H	4.8790	1.1586	9.8742
C	11.7116	12.3465	9.9430
C	11.0175	0.7569	8.9318
H	11.2115	12.0554	0.4552
H	12.0421	11.4258	9.4411
H	10.4302	1.5367	9.4363
H	10.3025	0.2548	8.2766
H	11.7503	1.2362	8.2735
C	3.6159	6.8763	4.2262
C	2.9825	7.8606	3.2388
H	3.6695	5.8607	3.7964
H	4.6688	7.1880	4.4053
H	2.2239	7.3420	2.6149
H	3.7656	8.2861	2.5855
H	2.4953	8.7145	3.7568
C	7.2524	6.8906	0.2577
C	7.8424	5.7592	9.8448
H	6.7023	7.6507	9.8201
H	7.9103	7.4182	0.9756
H	7.2460	4.8647	9.6100
H	8.3009	6.0796	8.8960
H	8.8639	5.3909	0.2452
C	0.6915	0.3117	6.1182
C	1.4536	12.2384	7.2040
H	0.6481	1.3594	6.4753
H	1.2754	0.2194	5.1747
H	1.0183	12.5082	8.1581
H	2.4447	0.1897	7.2128
H	1.4625	11.1596	7.0223
C	7.3253	10.2587	1.4638
C	6.3517	9.8244	2.5648
H	6.9807	9.7752	0.5277
H	8.3377	9.8706	1.7049
H	6.7544	10.0714	3.5698
H	5.3597	10.3022	2.4205
H	6.2191	8.7249	2.5314
C	5.7878	5.4579	6.8866
C	5.0675	5.6588	8.1680
H	5.0146	5.4649	6.1026
H	6.1866	4.4292	7.0134
H	5.4215	6.5777	8.5374
H	3.9661	5.6446	8.0470
H	5.2759	4.8599	8.8902
C	11.7328	5.3660	8.4315
C	11.1887	3.9679	8.2684
H	11.1111	6.0103	7.7884
H	0.2846	5.3441	8.1050
H	10.1666	3.8850	8.6959
H	11.1608	3.6939	7.1918
H	11.8857	3.2900	8.7875
