124

Ni	2.6981	8.5320	9.0882
Ni	6.1011	3.8776	3.4820
O	0.6552	4.9531	3.4329
O	4.0737	7.4719	9.3531
O	4.7596	2.7541	3.6136
O	1.3189	9.6410	9.1093
O	5.6043	4.8735	4.8126
O	2.1213	7.5424	10.4214
O	-0.3146	2.7472	4.3533
O	3.2053	9.7731	10.2612
N	3.5291	9.5153	7.6523
N	0.0494	2.8712	1.7734
N	1.9279	7.2751	7.8458
N	5.2232	5.0727	2.3062
C	3.8529	9.8982	5.2893
C	0.3268	2.3691	-0.5800
H	5.9032	2.0354	10.3029
C	4.9613	10.7036	5.5509
C	1.5320	1.6760	-0.3293
C	5.4120	10.8030	6.8714
C	2.0166	1.6814	0.9837
H	2.9756	10.7063	1.2073
C	2.0506	6.0293	5.7826
C	5.5443	6.2938	0.3322
H	2.6542	5.6829	4.9533
C	2.6787	6.6138	6.9048
C	5.9065	6.0341	1.6306
H	3.7464	6.7604	6.8805
H	0.3610	5.9463	1.2207
C	3.0838	9.4268	6.3561
C	-0.4712	2.8090	0.5081
H	2.2038	8.8798	6.1227
H	5.0133	2.8170	0.8903
C	4.7297	10.1250	7.8941
C	1.2812	2.3089	2.0140
H	5.1962	10.0176	8.8563
H	1.7196	2.3781	2.9995
C	0.5783	7.0578	7.8932
C	3.8866	4.9284	2.0495
H	0.0108	7.4250	8.7335
H	3.2587	4.3563	2.7125
C	-0.0762	6.3271	6.8823
C	3.3410	5.4808	0.8851
H	2.3257	5.2543	0.6037
C	0.6455	5.9492	5.7255
C	4.1696	6.2122	0.0253
C	5.5439	2.0812	4.4802
C	1.9944	10.3449	10.0492
C	-0.0464	5.4985	4.4532
C	3.3266	6.9410	10.3402
Ni	9.3045	9.0072	9.0117
Ni	12.8991	3.9373	3.1666
O	7.4791	4.9555	3.6211
O	10.7540	8.0128	9.2216
O	11.4665	2.8928	3.2090
O	7.8550	9.9987	9.1048
O	12.3623	4.9878	4.4694
O	8.8182	7.9159	10.3096
O	6.7437	2.6814	4.6118
O	9.7666	10.1919	10.2056
N	10.0259	10.1108	7.6400
N	6.8130	2.9067	2.0242
N	8.6214	7.8010	7.7129
N	12.1773	5.1568	1.8913
C	9.9602	1.5301	5.3950
C	6.6940	2.0701	-0.2280
H	9.3896	1.7427	4.5160
C	11.3624	1.6458	5.3804
C	8.0333	1.6594	-0.1565
C	12.0565	10.7347	6.5376
C	8.6796	1.7368	1.0901
H	6.3026	1.8956	7.1054
C	8.7213	6.8143	5.5235
C	12.3658	6.8687	0.2013
H	9.2416	6.6994	4.5801
C	9.3263	7.5171	6.5724
C	12.9597	5.9278	1.0743
H	10.3273	7.9000	6.4421
H	6.8770	6.3621	1.9613
C	9.3028	10.4946	6.5404
C	6.0692	2.6011	0.9156
H	8.2461	10.2854	6.4936
H	12.1973	3.1897	0.3165
C	11.3589	10.3620	7.6853
C	8.1322	2.5674	2.0646
H	11.9089	10.1185	8.5785
H	8.7464	2.9165	2.8726
C	7.3723	7.2693	7.8847
C	10.8189	5.3308	1.8797
H	6.7503	7.6202	8.6912
H	10.2127	4.9030	2.6637
C	6.8744	6.3200	6.9782
C	10.2056	6.1107	0.8976
H	9.1542	6.3315	0.9792
C	7.4625	6.2357	5.7205
C	10.9858	6.7539	-0.0607
C	12.1068	2.2330	4.1967
C	8.5067	10.6558	10.0926
C	6.7930	5.4931	4.6379
C	10.0675	7.4160	10.2246
P	3.5971	9.1977	3.6546
H	4.2604	7.9586	3.5727
H	2.2214	9.0008	3.4273
P	-0.2054	3.1023	9.2883
H	12.0696	3.2821	9.1413
H	0.4594	4.3415	9.2411
P	11.9615	5.6452	7.2361
H	11.7280	5.6813	8.6210
H	11.8970	4.2920	6.8583
P	6.4463	5.6975	10.6170
H	7.8436	5.1439	-0.2606
H	5.8261	4.4965	10.2576
P	0.1301	10.4295	6.4825
H	0.8662	2.1542	6.5982
H	0.3866	9.8122	5.2423
P	9.8378	9.9307	1.6081
H	11.1624	10.3942	1.5757
H	9.4804	9.3808	2.8531
P	5.9019	4.9254	7.5683
H	4.7362	5.2208	8.2894
H	6.7482	3.9618	8.1477
P	-0.5409	8.4819	0.1072
H	-0.7895	8.9897	10.2726
H	0.7218	8.4851	0.7273
