188

Ni	2.3324	9.2756	8.7500
Ni	6.1306	3.3056	4.0767
O	-0.2506	4.1858	4.2616
O	3.7257	8.1724	8.7877
O	4.6651	2.3260	4.1527
O	0.9249	10.3664	8.8346
O	5.6641	4.5044	5.3421
O	2.1726	8.1385	0.7244
O	-1.4401	1.9847	5.4376
O	2.9404	10.5158	0.7204
N	3.1957	10.3927	7.4863
N	-0.9507	2.0026	2.7748
N	1.4445	8.0791	7.4596
N	5.4098	4.5236	2.7467
C	3.2388	11.9075	5.6147
C	-0.0420	1.2554	0.5915
H	2.6840	0.7424	4.8824
H	6.8757	0.8871	8.9128
C	4.6017	0.4737	5.8440
C	0.9522	0.4417	1.2217
C	5.2677	11.4817	6.8406
C	0.9420	0.4255	2.5995
H	13.9239	11.6462	7.4011
H	1.5773	11.4615	3.1328
C	1.3848	6.3661	5.6942
C	5.4973	6.4005	1.1942
H	1.8953	5.8573	4.8936
H	12.6732	5.5006	8.9918
C	2.0768	7.4035	6.4364
C	6.1466	5.3399	1.9058
H	3.0983	7.6516	6.1804
C	2.5710	10.9374	6.4019
C	-1.1033	1.9013	1.3793
H	1.5381	10.6925	6.1933
C	4.5110	10.8033	7.8207
C	0.1473	1.3410	3.3225
H	0.4738	1.5796	4.3195
C	0.1472	7.6797	7.8031
C	4.0976	4.8707	2.9993
H	3.5485	4.3538	3.7701
C	-0.4581	6.5476	7.1821
C	3.5025	6.0060	2.4292
H	6.0958	7.5194	5.8002
H	2.5141	6.3136	2.7419
C	0.0699	5.9561	6.0612
C	4.1290	6.6635	1.3980
C	5.2749	1.6184	5.1105
C	1.5154	11.0844	9.7607
C	-0.7640	4.8927	5.2547
C	3.1368	7.5286	9.7752
Ni	9.7401	9.1002	8.6962
Ni	-1.7774	3.2650	4.1535
O	7.5835	4.2571	4.2371
O	11.2168	8.1252	8.9237
O	12.6631	2.3294	4.2744
O	8.2268	10.0942	8.7143
O	13.8866	4.4735	5.4970
O	9.2188	7.6820	9.7632
O	6.5179	2.1132	5.3730
O	10.0751	10.0839	0.8096
N	10.7041	10.5026	7.6611
N	6.9254	2.0881	2.7669
N	9.1958	8.1033	7.1046
N	13.3059	4.5842	2.9119
C	10.9888	12.0306	5.7596
C	7.3145	0.9909	0.6218
H	10.5448	0.7917	4.9066
H	-0.3044	1.2348	8.8519
C	12.3532	0.5569	6.0764
C	8.3285	11.8937	1.1888
C	12.8613	11.6152	7.1987
C	8.6485	12.1073	2.5201
H	6.3258	11.6371	6.9941
H	9.4299	11.5226	2.9891
C	8.9990	5.8512	6.2400
C	12.6429	5.4111	0.7073
H	9.4914	4.9430	5.9253
H	6.0583	6.9991	0.4897
C	9.7776	6.9159	6.7444
C	13.6314	4.8061	1.6213
C	10.1829	11.1366	6.5551
C	6.4996	1.8522	1.4676
H	9.1572	10.9619	6.2706
C	12.0135	10.8312	8.0487
C	8.0231	1.3976	3.2465
H	8.4650	1.6856	4.1873
C	7.9275	8.3522	6.6119
C	12.1383	5.1778	3.3945
H	7.5253	9.3516	6.6236
H	11.8034	4.9465	4.3946
C	7.1059	7.3038	6.1274
C	11.3090	6.0435	2.5971
H	-1.4117	6.1921	7.5247
H	10.4363	6.5045	3.0414
C	7.6336	6.0189	5.9767
C	11.5218	6.1682	1.2250
C	13.2150	1.5589	5.2099
C	8.9161	10.6646	0.4817
C	6.9303	4.9801	5.1446
C	10.5541	7.2714	9.6907
O	4.8601	11.0804	9.1774
C	5.6173	9.9982	0.6187
C	5.9772	10.3170	2.1061
H	4.8655	9.3372	0.8694
H	6.1672	9.4107	9.4137
C	5.1840	9.5632	3.1936
H	7.0243	10.0159	2.2876
H	5.8136	11.3718	2.3331
H	5.3923	8.4758	3.1426
H	5.4989	9.9190	4.1969
H	4.0940	9.7416	3.0838
O	13.5620	2.0562	0.8359
C	13.2289	2.4996	8.8226
C	11.7377	2.5379	8.5070
H	13.7955	1.9140	8.1116
H	13.5838	3.5018	8.6348
C	11.3298	3.3716	7.3014
H	11.3039	3.0212	9.3607
H	11.2723	1.5420	8.4751
H	11.2090	4.4287	7.5874
H	12.0827	3.3500	6.5201
H	10.3701	2.9935	6.8920
O	-0.6737	8.5093	8.5867
C	-0.3370	8.2949	0.6550
C	-1.5965	7.9581	1.3456
H	0.2514	7.4218	0.9024
H	0.0540	9.1880	1.1704
C	-1.3066	7.3922	2.7529
H	13.7191	8.7852	1.4258
H	13.8063	7.3691	0.6530
H	-0.7834	6.4238	2.7173
H	-0.5753	8.0204	3.2877
H	13.7154	7.3297	3.3422
O	7.5053	5.1556	1.7600
C	7.5918	4.8300	9.7465
C	8.8945	4.0498	9.6082
H	6.8105	4.2342	9.2521
H	7.6806	5.7620	9.1494
C	9.6410	3.4056	1.5589
H	8.7514	3.2550	8.8426
H	9.6516	4.7286	9.1885
H	10.6462	3.7472	1.8004
H	9.0582	3.5985	2.4620
H	9.7870	2.3321	1.3865
O	12.6006	10.2239	9.1571
C	12.4193	10.8174	1.0639
C	13.5592	11.2527	1.9294
H	11.9807	10.0281	1.6936
H	11.7271	11.6893	0.9388
C	13.9440	10.4901	3.1690
H	13.1783	0.4553	2.3792
H	-1.5228	11.2142	1.2713
H	13.2182	9.6842	3.3740
H	14.0148	11.1691	4.0331
H	-0.9776	10.1093	3.0671
O	5.1446	1.9895	1.1692
C	4.7130	2.7447	9.3245
C	3.3617	2.3815	8.7106
H	5.4842	2.5799	8.5395
H	4.6569	3.8165	9.5745
C	3.0529	3.2400	7.4829
H	2.5605	2.5028	9.4575
H	3.3544	1.3236	8.4150
H	2.6914	4.2427	7.7876
H	2.2820	2.7464	6.8610
H	3.9528	3.3668	6.8531
O	11.1296	6.7994	6.7221
C	11.6610	7.7647	5.8473
C	13.1070	7.8416	6.2073
H	11.2094	8.7663	5.9486
H	11.5448	7.4590	4.7960
C	13.8360	9.1023	5.8440
H	13.5652	6.9963	5.6752
H	13.1634	7.7607	7.3117
H	13.1094	9.8260	5.4730
H	-1.3019	8.8908	5.1358
H	-1.6136	9.5446	6.7129
O	-1.1394	4.2657	1.1933
C	-0.5129	4.9179	9.6563
C	1.0823	4.8823	0.8389
H	-0.4715	4.3716	8.7015
H	-0.8918	5.8767	9.4782
C	1.4547	3.9100	1.8342
H	1.6504	5.3443	9.5821
H	4.8275	5.8021	7.6380
H	1.7590	8.8927	3.6653
H	3.6951	0.5173	2.6093
H	0.0806	2.8217	7.1803
