188

Ni	3.0324	9.0107	8.4738
Ni	6.2963	3.1285	3.7147
O	1.2348	4.0834	3.4398
O	4.0617	9.2389	10.0269
O	4.7718	2.0628	3.6358
O	1.4849	9.9442	9.0902
O	5.7274	4.3078	4.9922
O	2.7084	7.5926	9.4965
O	0.3171	1.8931	4.7782
O	3.3807	10.1837	10.0023
N	3.6578	10.5521	7.3479
N	0.4760	1.6440	2.0871
N	2.2220	8.1073	6.9507
N	5.7172	4.4560	2.3132
C	3.1772	12.1146	5.4909
C	0.2584	12.1003	0.7216
C	4.5973	12.3957	5.2529
C	1.6557	11.8225	0.7098
C	5.4342	11.4534	5.8895
C	2.4210	0.1589	1.5428
C	2.5591	6.3221	5.3745
C	5.9845	6.6171	1.1179
C	2.9287	7.0219	6.5379
C	6.5332	5.4455	1.8010
H	3.9189	6.9031	6.8856
H	11.6890	3.1736	0.2756
C	2.7760	11.3457	6.6754
C	12.1951	0.7603	1.3763
H	1.7346	11.1391	6.8193
H	6.5826	2.8715	0.6738
C	4.9942	10.6932	7.0327
C	1.8355	1.3660	2.1160
H	5.7430	10.2169	7.6424
H	2.4673	1.9883	2.7118
C	0.8663	8.0625	6.6926
C	4.3651	4.5869	2.0896
H	0.1977	8.7281	7.2143
H	3.7006	3.8472	2.4887
C	0.3166	7.0432	5.8046
C	3.7804	5.8058	1.6046
C	1.1769	6.1070	5.1443
C	4.5853	6.8267	1.0258
C	5.2658	1.2877	4.6387
C	2.0834	10.6297	10.0546
C	0.6087	4.8134	4.4035
C	3.9009	7.9062	0.0695
Ni	9.2525	9.5033	8.9127
Ni	12.2669	2.9931	3.4523
O	7.7573	4.1266	4.1067
O	10.6052	8.3081	9.0548
O	10.8338	1.9708	3.8024
O	7.8906	10.6910	9.1194
O	11.9140	4.2453	4.6596
O	8.6779	8.3580	10.1694
O	6.5025	1.8190	4.9772
O	9.8184	10.6001	10.2158
N	10.0681	10.7181	7.5442
N	7.2561	1.9614	2.4196
N	8.4232	8.3341	7.4809
N	11.3284	4.1637	2.1158
C	9.6208	12.4770	5.9000
C	7.7958	1.1143	0.2044
H	8.8462	0.6625	5.7205
H	12.1158	11.4043	0.2612
C	10.9637	0.3953	5.8825
C	8.4778	12.5193	0.7202
C	11.7599	12.4368	6.9204
C	8.8129	0.0879	2.0800
H	6.4689	11.4365	5.6191
H	9.4836	11.8885	2.5265
C	8.5211	7.0265	5.3685
C	10.6547	5.1840	10.2121
H	8.9398	6.9131	4.3934
H	6.6561	7.3694	0.7356
C	8.9842	8.1226	6.2269
C	11.4018	4.0939	0.7482
H	9.8222	8.7178	5.9065
H	7.5995	5.3539	1.9042
C	9.2439	11.2953	6.6161
C	7.1994	2.1069	1.0796
H	8.2372	10.9482	6.5541
H	11.1406	0.9479	1.2931
C	11.3173	11.2907	7.7202
C	8.2592	1.1460	2.8829
H	11.9733	10.8756	8.4449
H	8.6052	1.2906	3.8577
C	7.4790	7.4134	7.8614
C	10.4484	5.1111	2.6226
H	6.9527	7.5606	8.7839
H	10.0416	4.9936	3.6108
C	7.3960	6.1298	7.2095
C	10.0870	6.2731	1.8803
H	11.7556	7.0000	5.6362
H	9.5380	7.0728	2.3502
C	7.5463	6.0886	5.8374
C	10.4301	6.3815	0.5414
C	11.5540	1.3767	4.7801
C	8.6581	11.2774	10.0956
C	7.0108	4.8293	4.9836
C	9.8244	7.6733	9.9936
O	2.2572	12.1992	4.4558
C	1.7953	10.8854	4.0779
C	0.3342	10.9133	3.6104
H	2.4273	10.4686	3.2708
H	1.8468	10.1157	4.8621
C	11.8547	10.1828	4.5178
H	0.0028	11.9487	3.5249
H	0.2632	10.4492	2.6166
H	12.1457	10.3025	5.5628
H	10.8284	10.5561	4.3352
H	11.8259	9.1026	4.3463
O	3.5465	12.1782	2.1435
C	4.6540	12.3168	1.3141
C	5.5668	11.1156	1.5403
H	5.1506	0.7352	1.5642
H	4.3855	12.3413	0.2401
C	6.2959	11.1473	2.8450
H	6.2621	10.9769	0.6943
H	4.9445	10.2178	1.6416
H	6.4300	12.1500	3.2111
H	7.2642	10.6154	2.7710
H	5.6578	10.6533	3.5758
O	3.4461	6.3676	4.3192
C	3.7657	7.7391	4.0434
C	5.0952	8.1411	4.6755
H	3.7495	7.9918	2.9827
H	2.9836	8.4357	4.3793
C	6.2590	8.1667	3.7183
H	4.9565	9.1418	5.0703
H	5.3752	7.4926	5.5146
H	7.0663	8.7989	4.1362
H	6.6436	7.1561	3.5909
H	5.9698	8.5653	2.7385
O	2.5283	6.1292	2.0597
C	1.5559	6.1057	1.0676
C	0.8693	7.4718	1.0551
H	0.8466	5.3561	1.3745
H	1.8794	5.7637	0.0641
C	0.1946	7.7702	2.3693
H	0.1902	7.5356	0.1959
H	1.5780	8.3014	0.9432
H	12.3544	6.8664	2.8821
H	11.8368	8.4410	2.1861
H	0.9337	8.2375	3.0489
O	0.4873	0.5056	7.1193
C	0.6139	1.0129	8.4223
C	1.0166	2.4716	8.4369
H	12.1790	0.9511	9.0102
H	1.4400	0.4451	8.8558
C	1.8592	2.8860	9.6341
H	0.0924	3.0228	8.5842
H	1.5128	2.7590	7.4847
H	2.6244	2.1351	9.9119
H	2.3507	3.8271	9.3720
H	1.4571	3.1166	0.2316
O	7.3740	1.2054	9.1503
C	6.0370	0.8618	8.9542
C	5.6658	1.4018	7.6509
H	5.3386	1.3355	9.6726
H	5.9050	12.2849	8.9693
C	4.1542	1.6516	7.5652
H	6.1783	0.7550	6.9882
H	6.2462	2.2691	7.3883
H	3.5903	0.8156	8.0105
H	3.8048	1.8892	6.5652
H	3.8807	2.5449	8.1172
O	7.8945	5.0407	7.8679
C	7.1100	4.7406	8.9676
C	5.7061	4.3295	8.5435
H	7.1723	5.5453	9.6977
H	7.6120	3.8853	9.4504
C	4.5928	5.2687	8.7756
H	5.4621	3.4492	9.1303
H	5.6783	4.1725	7.4540
H	3.7929	5.0959	8.0404
H	4.1214	4.9788	9.7005
H	4.9565	6.2982	8.7551
O	10.1880	4.8996	8.9805
C	10.9867	5.5302	8.0281
C	11.4266	4.4869	7.1292
H	11.8937	6.0690	8.4078
H	10.3709	6.2392	7.4541
C	10.5700	3.3637	6.8506
H	-0.0216	4.4126	6.9289
H	8.1585	2.7866	6.5173
H	5.0432	8.2800	7.9751
H	3.5095	4.0574	6.1274
H	2.6117	2.5267	4.8641
