140

Ni	2.8986	9.4112	8.5926
Ni	6.1753	3.1058	3.4848
O	1.4483	4.3542	3.9337
O	4.4416	8.1524	9.0546
O	4.6367	1.8473	3.8752
O	1.3650	10.6743	9.0030
O	5.8061	4.4603	4.9624
O	2.5424	8.0327	10.0675
O	0.2512	1.6926	4.9427
O	3.2372	10.8047	10.0626
N	3.6968	10.6606	7.2416
N	0.7126	1.8642	2.1170
N	2.1722	8.1441	7.2520
N	5.4402	4.3948	2.1375
C	3.4855	12.1483	5.3630
C	0.4749	0.3896	0.2292
H	2.8645	12.5181	4.5527
H	5.8697	0.0337	9.6938
C	4.7607	0.1474	5.6148
C	1.7433	12.3699	0.4741
C	5.5034	12.1502	6.6821
C	2.4985	0.3551	1.5400
H	0.2477	12.5084	6.9199
H	3.4916	12.5067	1.7734
C	2.4836	6.6337	5.4082
C	5.7280	5.9036	0.2867
H	3.1330	6.2729	4.6160
H	-0.1083	6.2667	9.7662
C	2.9276	7.6810	6.2307
C	6.1883	4.8676	1.1160
H	3.8999	8.1465	6.0889
H	0.9159	4.4189	0.9763
C	2.9826	11.1359	6.1975
C	-0.0104	1.4055	1.0711
H	5.2609	1.8501	0.9235
C	4.9364	11.1381	7.4751
C	1.9482	1.3719	2.3406
H	5.4856	10.7097	8.3094
H	2.5089	1.7921	3.1727
C	0.9457	7.6265	7.4730
C	4.2108	4.9046	2.3569
C	0.4386	6.5758	6.6918
C	3.6876	5.9450	1.5694
H	5.7077	6.1769	6.9197
H	2.6982	6.3268	1.8007
C	1.2275	6.0647	5.6520
C	4.4634	6.4578	0.5203
C	5.3126	1.2438	4.7942
C	2.0502	11.2676	9.9216
C	0.7355	4.9402	4.8359
C	3.7317	7.5663	9.9569
Ni	9.1514	9.4112	8.5926
Ni	12.4281	3.1058	3.4848
O	7.7011	4.3542	3.9337
O	10.6944	8.1524	9.0546
O	10.8895	1.8473	3.8752
O	7.6178	10.6743	9.0030
O	12.0589	4.4603	4.9624
O	8.7952	8.0327	10.0675
O	6.5040	1.6926	4.9427
O	9.4900	10.8047	10.0626
N	9.9496	10.6606	7.2416
N	6.9654	1.8642	2.1170
N	8.4250	8.1441	7.2520
N	11.6930	4.3948	2.1375
C	9.7383	12.1483	5.3630
C	6.7277	0.3896	0.2292
H	9.1173	12.5181	4.5527
H	12.1225	0.0337	9.6938
C	11.0135	0.1474	5.6148
C	7.9961	12.3699	0.4741
C	11.7562	12.1502	6.6821
C	8.7513	0.3551	1.5400
H	6.5005	12.5084	6.9199
H	9.7444	12.5067	1.7734
C	8.7364	6.6337	5.4082
C	11.9808	5.9036	0.2867
H	9.3858	6.2729	4.6160
H	6.1445	6.2667	9.7662
C	9.1804	7.6810	6.2307
C	12.4411	4.8676	1.1160
H	10.1527	8.1465	6.0889
H	7.1687	4.4189	0.9763
C	9.2354	11.1359	6.1975
C	6.2424	1.4055	1.0711
C	11.1892	11.1381	7.4751
C	8.2010	1.3719	2.3406
H	11.7384	10.7097	8.3094
C	7.1985	7.6265	7.4730
C	10.4636	4.9046	2.3569
C	6.6914	6.5758	6.6918
C	9.9404	5.9450	1.5694
H	11.9605	6.1769	6.9197
H	8.9510	6.3268	1.8007
C	7.4803	6.0647	5.6520
C	10.7162	6.4578	0.5203
C	11.5654	1.2438	4.7942
C	8.3030	11.2676	9.9216
C	6.9883	4.9402	4.8359
C	9.9845	7.5663	9.9569
S	1.3322	10.3980	5.9175
C	0.4865	11.5779	7.0143
H	-0.5989	11.3499	7.0027
H	0.8495	11.4654	8.0572
H	0.6183	12.6159	6.6435
S	-1.6497	2.1708	0.7978
C	-2.5120	0.9981	1.8894
H	-3.5937	1.2431	1.8809
H	-2.1457	1.0990	2.9323
H	-2.3971	-0.0397	1.5126
S	-0.0302	8.3599	8.8368
C	0.6549	7.2348	10.0919
H	0.1801	7.4678	11.0668
H	1.7487	7.3921	10.1969
H	0.4140	6.1806	9.8414
S	3.2489	4.1796	3.7370
C	2.5097	2.8817	2.6981
H	1.8233	2.2789	3.3272
H	3.2972	2.2055	2.3048
H	1.9103	3.3332	1.8802
S	7.5816	10.4036	5.9223
C	8.2173	9.0693	4.8613
H	7.3590	8.4558	4.5189
H	8.9018	8.4109	5.4357
H	8.7122	9.4908	3.9615
S	9.1385	2.0934	3.7393
C	8.4656	0.9168	4.9531
H	8.9198	1.1356	5.9411
H	7.3666	1.0423	5.0456
H	8.7384	-0.1234	4.6782
S	6.2259	8.3545	8.8420
C	5.4791	9.6366	7.7889
H	4.7848	10.2385	8.4100
H	6.2620	10.3165	7.3928
H	4.8872	9.1725	6.9726
S	9.4985	4.1741	3.7319
C	10.1782	5.3164	4.9744
H	9.7094	5.0876	5.9532
H	11.2738	5.1699	5.0763
H	9.9267	6.3661	4.7157
