180

Ni	2.8986	9.4112	8.5926
Ni	6.1753	3.1058	3.4848
O	1.4483	4.3542	3.9337
O	4.4416	8.1524	9.0546
O	4.6367	1.8473	3.8752
O	1.3650	10.6743	9.0030
O	5.8061	4.4603	4.9624
O	2.5424	8.0327	10.0675
O	0.2512	1.6926	4.9427
O	3.2372	10.8047	10.0626
N	3.6968	10.6606	7.2416
N	0.7126	1.8642	2.1170
N	2.1722	8.1441	7.2520
N	5.4402	4.3948	2.1375
C	3.4855	12.1483	5.3630
C	0.4749	0.3896	0.2292
H	2.8645	12.5181	4.5527
H	5.8697	0.0337	9.6938
C	4.7607	0.1474	5.6148
C	1.7433	12.3699	0.4741
C	5.5034	12.1502	6.6821
C	2.4985	0.3551	1.5400
C	2.4836	6.6337	5.4082
C	5.7280	5.9036	0.2867
H	3.1330	6.2729	4.6160
C	2.9276	7.6810	6.2307
C	6.1883	4.8676	1.1160
H	3.8999	8.1465	6.0889
H	0.9159	4.4189	0.9763
C	2.9826	11.1359	6.1975
C	-0.0104	1.4055	1.0711
H	1.9939	10.7090	6.0470
H	5.2609	1.8501	0.9235
C	4.9364	11.1381	7.4751
C	1.9482	1.3719	2.3406
H	5.4856	10.7097	8.3094
H	2.5089	1.7921	3.1727
C	0.9457	7.6265	7.4730
C	4.2108	4.9046	2.3569
H	0.3633	8.0518	8.2873
H	3.6361	4.4774	3.1753
C	0.4386	6.5758	6.6918
C	3.6876	5.9450	1.5694
C	1.2275	6.0647	5.6520
C	4.4634	6.4578	0.5203
C	5.3126	1.2438	4.7942
C	2.0502	11.2676	9.9216
C	0.7355	4.9402	4.8359
C	3.7317	7.5663	9.9569
Ni	9.1514	9.4112	8.5926
Ni	12.4281	3.1058	3.4848
O	7.7011	4.3542	3.9337
O	10.6944	8.1524	9.0546
O	10.8895	1.8473	3.8752
O	7.6178	10.6743	9.0030
O	12.0589	4.4603	4.9624
O	8.7952	8.0327	10.0675
O	6.5040	1.6926	4.9427
O	9.4900	10.8047	10.0626
N	9.9496	10.6606	7.2416
N	6.9654	1.8642	2.1170
N	8.4250	8.1441	7.2520
N	11.6930	4.3948	2.1375
C	9.7383	12.1483	5.3630
C	6.7277	0.3896	0.2292
H	9.1173	12.5181	4.5527
H	12.1225	0.0337	9.6938
C	11.0135	0.1474	5.6148
C	7.9961	12.3699	0.4741
C	11.7562	12.1502	6.6821
C	8.7513	0.3551	1.5400
C	8.7364	6.6337	5.4082
C	11.9808	5.9036	0.2867
H	9.3858	6.2729	4.6160
H	6.1445	6.2667	9.7662
C	9.1804	7.6810	6.2307
C	12.4411	4.8676	1.1160
H	10.1527	8.1465	6.0889
H	7.1687	4.4189	0.9763
C	9.2354	11.1359	6.1975
C	6.2424	1.4055	1.0711
H	8.2467	10.7090	6.0470
H	11.5137	1.8501	0.9235
C	11.1892	11.1381	7.4751
C	8.2010	1.3719	2.3406
H	11.7384	10.7097	8.3094
H	8.7617	1.7921	3.1727
C	7.1985	7.6265	7.4730
C	10.4636	4.9046	2.3569
H	6.6161	8.0518	8.2873
H	9.8889	4.4774	3.1753
C	6.6914	6.5758	6.6918
C	9.9404	5.9450	1.5694
H	8.9510	6.3268	1.8007
C	7.4803	6.0647	5.6520
C	10.7162	6.4578	0.5203
C	11.5654	1.2438	4.7942
C	8.3030	11.2676	9.9216
C	6.9883	4.9402	4.8359
C	9.9845	7.5663	9.9569
C	6.9197	12.6679	6.9946
C	7.6441	12.0250	8.1898
H	6.8469	13.7581	7.1997
H	7.5510	12.4984	6.0953
C	9.0320	12.6309	8.3835
H	7.7613	10.9331	8.0158
H	7.0576	12.1920	9.1194
H	9.6556	12.4664	7.4789
H	9.5308	12.1493	9.2509
H	8.9540	13.7216	8.5793
C	3.9101	-0.1807	1.8426
C	4.6490	0.4492	3.0359
H	4.5383	-0.0156	0.9403
H	3.8253	-1.2707	2.0443
C	6.0305	-0.1741	3.2196
H	4.0657	0.2859	3.9683
H	4.7783	1.5402	2.8650
H	5.9405	-1.2645	3.4121
H	6.5400	0.2984	4.0857
H	6.6509	-0.0139	2.3121
C	-0.9609	6.0054	6.9840
C	-1.7384	6.6423	8.1487
H	-0.8475	4.9238	7.2146
H	-1.5782	6.1292	6.0677
C	-3.1039	5.9826	8.3254
H	-1.8969	7.7243	7.9482
H	-1.1667	6.5197	9.0944
H	-3.7131	6.1016	7.4041
H	-3.6419	6.4609	9.1709
H	-2.9850	4.9005	8.5469
C	2.2834	6.5019	1.8670
C	1.5206	5.8652	3.0416
H	2.3863	7.5864	2.0888
H	1.6616	6.3644	0.9558
C	0.1490	6.5110	3.2224
H	1.3728	4.7800	2.8501
H	2.0971	6.0012	3.9825
H	-0.4648	6.3783	2.3060
H	-0.3781	6.0331	4.0749
H	0.2573	7.5960	3.4350
C	13.1725	12.6679	6.9946
C	13.8969	12.0250	8.1898
H	13.0997	13.7581	7.1997
H	13.8038	12.4984	6.0953
C	15.2848	12.6309	8.3835
H	14.0141	10.9331	8.0158
H	13.3104	12.1920	9.1194
H	15.9084	12.4664	7.4789
H	15.7836	12.1493	9.2509
H	15.2068	13.7216	8.5793
C	10.1629	-0.1807	1.8426
C	10.9018	0.4492	3.0359
H	10.7911	-0.0156	0.9403
H	10.0781	-1.2707	2.0443
C	12.2833	-0.1741	3.2196
H	10.3185	0.2859	3.9683
H	11.0311	1.5402	2.8650
H	12.1933	-1.2645	3.4121
H	12.7928	0.2984	4.0857
H	12.9037	-0.0139	2.3121
C	5.2919	6.0054	6.9840
C	4.5144	6.6423	8.1487
H	5.4053	4.9238	7.2146
H	4.6746	6.1292	6.0677
C	3.1489	5.9826	8.3254
H	4.3559	7.7243	7.9482
H	5.0861	6.5197	9.0944
H	2.5397	6.1016	7.4041
H	2.6109	6.4609	9.1709
H	3.2678	4.9005	8.5469
C	12.8709	6.4147	-0.8650
C	14.2417	5.7371	-1.0339
H	12.3129	6.2732	-1.8161
H	13.0561	7.4981	-0.6982
C	15.0129	6.3389	-2.2061
H	14.8460	5.8752	-0.1109
H	14.1032	4.6511	-1.2281
H	15.1875	7.4231	-2.0384
H	15.9961	5.8321	-2.3044
H	14.4470	6.2026	-3.1522
