164

Ni	2.8986	9.4112	8.5926
Ni	6.1753	3.1058	3.4848
O	1.4483	4.3542	3.9337
O	4.4416	8.1524	9.0546
O	4.6367	1.8473	3.8752
O	1.3650	10.6743	9.0030
O	5.8061	4.4603	4.9624
O	2.5424	8.0327	10.0675
O	0.2512	1.6926	4.9427
O	3.2372	10.8047	10.0626
N	3.6968	10.6606	7.2416
N	0.7126	1.8642	2.1170
N	2.1722	8.1441	7.2520
N	5.4402	4.3948	2.1375
C	3.4855	12.1483	5.3630
C	0.4749	0.3896	0.2292
H	2.8645	12.5181	4.5527
H	5.8697	0.0337	9.6938
C	4.7607	0.1474	5.6148
C	1.7433	12.3699	0.4741
C	5.5034	12.1502	6.6821
C	2.4985	0.3551	1.5400
H	0.2477	12.5084	6.9199
H	3.4916	12.5067	1.7734
C	2.4836	6.6337	5.4082
C	5.7280	5.9036	0.2867
H	3.1330	6.2729	4.6160
H	-0.1083	6.2667	9.7662
C	2.9276	7.6810	6.2307
C	6.1883	4.8676	1.1160
H	3.8999	8.1465	6.0889
H	0.9159	4.4189	0.9763
C	2.9826	11.1359	6.1975
C	-0.0104	1.4055	1.0711
H	1.9939	10.7090	6.0470
C	4.9364	11.1381	7.4751
C	1.9482	1.3719	2.3406
C	0.9457	7.6265	7.4730
C	4.2108	4.9046	2.3569
C	0.4386	6.5758	6.6918
C	3.6876	5.9450	1.5694
H	5.7077	6.1769	6.9197
H	2.6982	6.3268	1.8007
C	1.2275	6.0647	5.6520
C	4.4634	6.4578	0.5203
C	5.3126	1.2438	4.7942
C	2.0502	11.2676	9.9216
C	0.7355	4.9402	4.8359
C	3.7317	7.5663	9.9569
Ni	9.1514	9.4112	8.5926
Ni	12.4281	3.1058	3.4848
O	7.7011	4.3542	3.9337
O	10.6944	8.1524	9.0546
O	10.8895	1.8473	3.8752
O	7.6178	10.6743	9.0030
O	12.0589	4.4603	4.9624
O	8.7952	8.0327	10.0675
O	6.5040	1.6926	4.9427
O	9.4900	10.8047	10.0626
N	9.9496	10.6606	7.2416
N	6.9654	1.8642	2.1170
N	8.4250	8.1441	7.2520
N	11.6930	4.3948	2.1375
C	9.7383	12.1483	5.3630
C	6.7277	0.3896	0.2292
H	9.1173	12.5181	4.5527
H	12.1225	0.0337	9.6938
C	11.0135	0.1474	5.6148
C	7.9961	12.3699	0.4741
C	11.7562	12.1502	6.6821
C	8.7513	0.3551	1.5400
H	6.5005	12.5084	6.9199
H	9.7444	12.5067	1.7734
C	8.7364	6.6337	5.4082
C	11.9808	5.9036	0.2867
H	9.3858	6.2729	4.6160
H	6.1445	6.2667	9.7662
C	9.1804	7.6810	6.2307
C	12.4411	4.8676	1.1160
H	7.1687	4.4189	0.9763
C	9.2354	11.1359	6.1975
C	6.2424	1.4055	1.0711
H	8.2467	10.7090	6.0470
H	11.5137	1.8501	0.9235
C	11.1892	11.1381	7.4751
C	8.2010	1.3719	2.3406
H	8.7617	1.7921	3.1727
C	7.1985	7.6265	7.4730
C	10.4636	4.9046	2.3569
H	6.6161	8.0518	8.2873
C	6.6914	6.5758	6.6918
C	9.9404	5.9450	1.5694
H	11.9605	6.1769	6.9197
H	8.9510	6.3268	1.8007
C	7.4803	6.0647	5.6520
C	10.7162	6.4578	0.5203
C	11.5654	1.2438	4.7942
C	8.3030	11.2676	9.9216
C	6.9883	4.9402	4.8359
C	9.9845	7.5663	9.9569
O	5.7137	10.6420	8.5233
C	5.3174	9.6504	9.3998
C	6.4323	9.3837	10.3990
H	5.1032	8.7132	8.8410
H	4.4084	9.9735	9.9528
H	7.3495	9.0530	9.8666
H	6.1195	8.5871	11.1065
H	6.6579	10.3074	10.9731
O	2.7385	1.8555	3.3847
C	2.3598	2.8488	4.2669
C	3.4846	3.0995	5.2591
H	1.4509	2.5345	4.8251
H	2.1526	3.7902	3.7125
H	3.7035	2.1714	5.8289
H	3.1859	3.8975	5.9712
H	4.4018	3.4212	4.7214
O	0.1287	8.1166	8.4910
C	0.4675	9.1430	9.3513
C	-0.6786	9.3900	10.3198
H	0.6583	10.0744	8.7745
H	1.3757	8.8682	9.9311
H	-1.5956	9.6725	9.7602
H	-0.4119	10.2145	11.0142
H	-0.8816	8.4720	10.9113
O	3.4009	4.4159	3.3833
C	3.7525	3.4001	4.2511
C	2.6126	3.1512	5.2263
H	3.9495	2.4655	3.6817
H	4.6604	3.6882	4.8248
H	1.6959	2.8555	4.6729
H	2.8895	2.3353	5.9268
H	2.4035	4.0724	5.8107
O	11.9665	10.6420	8.5233
C	11.5702	9.6504	9.3998
C	12.6851	9.3837	10.3990
H	11.3560	8.7132	8.8410
H	10.6612	9.9735	9.9528
H	13.6023	9.0530	9.8666
H	12.3723	8.5871	11.1065
H	12.9107	10.3074	10.9731
O	4.9812	1.9239	0.7839
C	4.3539	2.9218	1.5045
C	2.9959	3.2147	0.8860
H	4.9672	3.8492	1.4818
H	4.2070	2.5950	2.5571
H	3.1209	3.5494	-0.1658
H	2.4867	4.0165	1.4611
H	2.3643	2.3012	0.9044
O	10.4315	8.2263	5.9541
C	11.0187	9.2580	6.6608
C	12.3796	9.5724	6.0595
H	10.3815	10.1676	6.6045
H	11.1549	8.9607	7.7237
H	12.2651	9.8781	4.9977
H	12.8566	10.4014	6.6237
H	13.0348	8.6770	6.1116
O	9.6537	4.4159	3.3833
C	10.0053	3.4001	4.2511
C	8.8654	3.1512	5.2263
H	10.2023	2.4655	3.6817
H	10.9132	3.6882	4.8248
H	7.9487	2.8555	4.6729
H	9.1423	2.3353	5.9268
H	8.6563	4.0724	5.8107
