7

N         -1.92537       -1.93452       -0.09502
C         -0.76198       -1.23474       -0.00307
C          0.53914       -1.97502        0.01729
H          0.55873       -2.66407        0.88735
H          1.40477       -1.28313        0.09497
H          0.64253       -2.56640       -0.91640
C         -0.79447        0.16612        0.07128
