188

C	3.4855	12.1483	5.3630
C	0.4749	0.3896	0.2292
C	4.7607	0.1474	5.6148
C	1.7433	12.3699	0.4741
C	5.5035	12.1502	6.6821
C	2.4985	0.3551	1.5400
C	2.4836	6.6337	5.4082
C	5.7280	5.9036	0.2867
C	2.9276	7.6810	6.2307
C	6.1883	4.8676	1.1160
C	2.9826	11.1359	6.1975
C	-0.0104	1.4055	1.0711
C	4.9364	11.1381	7.4751
C	1.9482	1.3719	2.3406
C	0.9457	7.6265	7.4730
C	4.2108	4.9046	2.3569
C	0.4386	6.5758	6.6918
C	3.6876	5.9450	1.5694
C	1.2275	6.0647	5.6521
C	4.4634	6.4578	0.5203
C	5.3126	1.2438	4.7942
C	2.0502	11.2676	9.9216
C	0.7355	4.9402	4.8359
C	3.7318	7.5663	9.9569
C	9.7383	12.1483	5.3630
C	6.7277	0.3896	0.2292
C	11.0136	0.1474	5.6148
C	7.9961	12.3699	0.4741
C	11.7563	12.1502	6.6821
C	8.7513	0.3551	1.5400
C	8.7365	6.6337	5.4082
C	11.9809	5.9036	0.2867
C	9.1804	7.6810	6.2307
C	12.4411	4.8676	1.1160
C	9.2354	11.1359	6.1975
C	6.2425	1.4055	1.0711
C	11.1892	11.1381	7.4751
C	8.2010	1.3719	2.3406
C	7.1985	7.6265	7.4730
C	10.4636	4.9046	2.3569
C	6.6914	6.5758	6.6918
C	9.9404	5.9450	1.5694
C	7.4803	6.0647	5.6521
C	10.7162	6.4578	0.5203
C	11.5654	1.2438	4.7942
C	8.3030	11.2676	9.9216
C	6.9883	4.9402	4.8359
C	9.9846	7.5663	9.9569
C	7.1935	13.4255	7.8598
C	8.4102	1.7293	7.5758
C	9.3661	1.7295	8.7292
C	3.5496	-1.5366	2.4448
C	4.7901	9.0231	3.3188
C	5.9980	8.7215	3.9214
C	11.4045	4.7850	7.3484
C	9.9732	4.4926	7.0685
C	9.0416	4.8962	8.1553
C	1.7186	7.0014	2.8235
C	0.5755	7.8827	2.4575
C	12.0918	7.9110	3.5813
C	6.7855	9.9594	4.0779
C	5.9666	-1.5476	3.3998
C	4.7503	-2.1141	3.0187
C	10.1319	-1.4784	2.2736
C	11.5327	10.6700	1.9016
C	0.0318	11.0696	2.9196
C	5.4768	4.6574	7.5716
C	4.0923	3.9942	7.5905
C	3.2036	4.6178	8.5679
C	1.2629	5.5707	9.4670
C	1.8588	4.9104	8.4128
C	3.4493	3.6162	6.2909
H	2.8645	12.5181	4.5527
H	5.8697	0.0337	9.6938
H	0.2477	12.5084	6.9199
H	3.1330	6.2729	4.6161
H	3.8999	8.1466	6.0889
H	0.9159	4.4189	0.9763
H	1.9939	10.7091	6.0470
H	5.2609	1.8501	0.9235
H	5.4856	10.7097	8.3094
H	2.5089	1.7921	3.1727
H	0.3633	8.0519	8.2873
H	3.6361	4.4774	3.1753
H	12.1225	0.0337	9.6938
H	9.3858	6.2729	4.6161
H	6.1445	6.2667	9.7662
H	10.1528	8.1466	6.0889
H	7.1687	4.4189	0.9763
H	8.2467	10.7091	6.0470
H	11.5137	1.8501	0.9235
H	11.7384	10.7097	8.3094
H	8.7617	1.7921	3.1727
H	6.6161	8.0519	8.2873
H	9.8889	4.4774	3.1753
H	8.9510	6.3268	1.8007
H	7.4390	12.6902	8.6193
H	6.3162	14.0156	8.1694
H	8.0842	2.7549	7.3364
H	8.8971	1.3641	6.6618
H	8.9021	2.1172	9.6502
H	10.2533	2.3375	8.5341
H	9.7028	13.2292	8.9495
H	3.2317	-2.1739	1.5978
H	2.7194	-1.5880	3.1753
H	5.7971	10.1829	0.5594
H	4.0080	8.3161	3.0619
H	6.9947	1.0526	5.6093
H	7.6100	7.9678	1.6348
H	6.3102	7.7417	4.2651
H	11.6176	4.6374	8.4167
H	12.0677	4.0966	6.7999
H	9.9151	3.4168	6.8470
H	9.7266	4.9604	6.0992
H	9.2753	4.3821	9.0979
H	7.9992	4.6602	7.9069
H	9.1009	5.9743	8.3388
H	2.3912	7.5488	3.4934
H	1.3988	6.0605	3.2608
H	12.6089	7.5161	1.5316
H	0.9437	8.8917	2.2078
H	11.7437	6.8982	3.8262
H	11.2134	8.5188	3.3495
H	12.5342	8.3264	4.5004
H	7.8384	9.9115	3.7708
H	6.8364	10.2090	5.1566
H	6.4357	1.4972	2.9673
H	7.1347	-4.6248	2.2159
H	6.2808	-0.5234	3.2217
H	5.5803	0.5123	1.5110
H	6.3387	9.7186	0.7767
H	9.3494	-2.0994	1.8151
H	10.0019	-1.5538	3.3672
H	-0.7552	11.1233	0.9184
H	11.5300	9.5900	1.6959
H	-0.0303	-0.3827	3.1412
H	1.0434	10.8750	2.5462
H	-0.1013	10.5194	3.8624
H	5.8456	4.7215	8.6092
H	6.1850	4.0558	6.9948
H	4.3842	3.0456	8.1172
H	3.3428	4.4745	5.6258
H	3.6576	4.8453	9.5295
H	0.7160	2.1572	8.3273
H	2.1306	7.5622	10.9102
H	0.7484	2.1442	7.5811
H	1.8141	5.6649	10.3853
H	2.7042	7.7704	8.0995
H	2.4687	3.1633	6.4616
H	1.3383	4.5901	7.5216
H	3.6050	6.8159	6.7116
H	4.0529	2.8982	5.7458
N	3.6968	10.6606	7.2416
N	0.7126	1.8642	2.1170
N	2.1722	8.1441	7.2520
N	5.4402	4.3948	2.1375
N	9.9496	10.6606	7.2416
N	6.9654	1.8642	2.1170
N	8.4250	8.1441	7.2520
N	11.6931	4.3948	2.1375
Ni	2.8986	9.4112	8.5927
Ni	6.1753	3.1058	3.4848
Ni	9.1514	9.4112	8.5927
Ni	12.4281	3.1058	3.4848
O	1.4483	4.3543	3.9337
O	4.4416	8.1525	9.0546
O	4.6367	1.8473	3.8752
O	1.3650	10.6744	9.0030
O	5.8061	4.4603	4.9624
O	2.5424	8.0327	10.0675
O	0.2512	1.6926	4.9427
O	3.2372	10.8047	10.0626
O	7.7011	4.3543	3.9337
O	10.6944	8.1525	9.0546
O	10.8895	1.8473	3.8752
O	7.6178	10.6744	9.0030
O	12.0589	4.4603	4.9624
O	8.7953	8.0327	10.0675
O	6.5040	1.6926	4.9427
O	9.4900	10.8047	10.0626
O	6.7970	0.0790	6.7267
O	3.6709	12.3499	2.0013
O	11.7274	6.1544	7.0376
O	2.4912	6.6095	1.6677
O	8.9145	0.0959	4.5336
O	9.9275	12.4348	1.9673
O	5.4923	6.0429	7.0815
O	0.0311	6.1455	9.4816
