41

Ni	2.9028	9.4421	8.6245
O	1.4194	4.3784	4.0368
O	4.6360	1.6666	3.8035
O	5.7451	4.4111	5.1094
O	0.3079	1.5003	4.8721
N	3.7677	10.5560	7.1530
N	2.0951	8.0914	7.3471
C	3.5585	12.0137	5.2748
H	3.0266	12.3506	4.5628
C	4.8383	12.4984	5.4834
C	5.5898	11.9548	6.5283
C	2.4254	6.5009	5.5902
H	2.9870	6.1490	4.9091
C	2.8617	7.5541	6.3875
H	3.7328	7.9060	6.2457
C	3.0629	11.0319	6.1132
H	2.1949	10.6825	5.9498
C	5.0180	10.9918	7.3328
H	5.5326	10.6236	8.0407
C	0.8614	7.5704	7.5475
H	0.3136	7.9473	8.2266
C	0.3657	6.5159	6.8077
C	1.1715	5.9737	5.8009
C	5.3864	1.1183	4.6748
C	0.6533	4.8365	4.9471
O	6.8750	12.3915	6.7278
C	7.7278	11.9430	7.7179
C	9.0590	12.6695	7.6059
H	7.9029	10.8510	7.6022
H	7.2888	12.1485	8.7188
H	9.5181	12.4721	6.6139
H	9.7489	12.3131	8.3996
H	8.9068	13.7634	7.7252
O	-0.8778	5.9939	7.0310
C	-1.7700	6.4345	7.9894
C	-3.0389	5.5993	7.9209
H	-2.0300	7.4998	7.8049
H	-1.3229	6.3275	9.0019
H	-3.5054	5.6973	6.9176
H	-3.7602	5.9489	8.6894
H	-2.8017	4.5305	8.1090
