31

Ni	2.9028	9.4421	8.6245
O	1.4194	4.3784	4.0368
O	4.6360	1.6666	3.8035
O	5.7451	4.4111	5.1094
O	0.3079	1.5003	4.8721
N	3.7677	10.5560	7.1530
N	2.0951	8.0914	7.3471
C	3.5585	12.0137	5.2748
C	4.8383	12.4984	5.4834
C	5.5898	11.9548	6.5283
H	0.2284	12.2454	6.6834
C	2.4254	6.5009	5.5902
H	2.9870	6.1490	4.9091
C	2.8617	7.5541	6.3875
H	3.7328	7.9060	6.2457
C	3.0629	11.0319	6.1132
H	2.1949	10.6825	5.9498
C	5.0180	10.9918	7.3328
H	5.5326	10.6236	8.0407
C	0.8614	7.5704	7.5475
H	0.3136	7.9473	8.2266
C	0.3657	6.5159	6.8077
C	1.1715	5.9737	5.8009
C	5.3864	1.1183	4.6748
C	0.6533	4.8365	4.9471
N	2.7537	12.5241	4.2001
N	1.5990	12.1078	3.9876
H	1.0478	12.4943	3.2088
N	-0.9367	5.9857	7.0578
N	-1.6722	6.4520	7.9487
H	-2.6066	6.0502	8.1071
