47

Ni	2.9028	9.4421	8.6245
O	1.4194	4.3784	4.0368
O	4.6360	1.6666	3.8035
O	5.7451	4.4111	5.1094
O	0.3079	1.5003	4.8721
N	3.7677	10.5560	7.1530
N	2.0951	8.0914	7.3471
C	3.5585	12.0137	5.2748
H	3.0266	12.3506	4.5628
C	4.8383	12.4984	5.4834
C	5.5898	11.9548	6.5283
C	2.4254	6.5009	5.5902
H	2.9870	6.1490	4.9091
C	2.8617	7.5541	6.3875
H	3.7328	7.9060	6.2457
C	3.0629	11.0319	6.1132
H	2.1949	10.6825	5.9498
C	5.0180	10.9918	7.3328
H	5.5326	10.6236	8.0407
C	0.8614	7.5704	7.5475
H	0.3136	7.9473	8.2266
C	0.3657	6.5159	6.8077
C	1.1715	5.9737	5.8009
C	5.3864	1.1183	4.6748
C	0.6533	4.8365	4.9471
O	6.8750	12.3916	6.7277
C	7.7283	11.9437	7.7177
C	9.0637	12.6761	7.6010
H	7.8975	10.8504	7.5996
H	7.2831	12.1485	8.7165
C	10.0439	12.2153	8.6758
H	8.8952	13.7698	7.7085
H	9.5053	12.4808	6.5995
H	9.6319	12.4193	9.6872
H	11.0026	12.7644	8.5651
H	10.2435	11.1271	8.5755
O	-0.8778	5.9938	7.0309
C	-1.7704	6.4338	7.9891
C	-3.0430	5.5921	7.9164
H	-2.0246	7.5007	7.8022
H	-1.3172	6.3279	8.9997
C	-4.0638	6.0401	8.9583
H	-2.7894	4.5240	8.0929
H	-3.4919	5.6887	6.9038
H	-3.6439	5.9331	9.9813
H	-4.9754	5.4110	8.8806
H	-4.3480	7.1007	8.7894
