496
#
Ni    0.0000    3.5536    4.8681
O    7.3399    1.4669    0.0000
O    7.3447    6.7931    1.2537
C    9.2311    2.8059    1.7390
C    9.4894    0.7129    2.9055
C    10.5272    1.3283    3.6601
H    11.0926    0.7463    4.3859
H    9.5501    6.1342    4.0571
N    10.8212    2.6226    3.5441
N    9.1359    6.5734    3.2173
C    8.8538    1.4705    1.8763
H    8.3420    6.1740    2.6948
C    7.8207    0.8657    1.0334
C    10.1940    3.3617    2.5905
H    10.4725    4.4114    2.5394
H    8.7467    3.4569    1.0153
Ni    5.9510    0.0000    10.1895
O    10.5129    5.0205    5.3214
O    10.5082    3.2395    6.5752
C    8.6217    6.3595    7.0605
C    8.3635    4.2665    8.2270
C    7.3256    4.8819    8.9815
H    6.7603    4.2999    9.7074
H    8.3028    2.5806    9.3785
N    7.0316    6.1762    8.8655
N    8.7170    3.0198    8.5388
C    8.9990    5.0241    7.1978
H    9.5108    2.6204    8.0162
C    10.0321    4.4193    6.3549
C    7.6589    6.9153    7.9119
H    7.3804    0.8578    7.8608
H    9.1061    7.0105    6.3368
O    4.5620    5.6403    0.0000
O    4.5572    0.3141    1.2537
C    2.6708    4.3013    1.7390
C    2.4125    6.3943    2.9055
C    1.3747    5.7789    3.6601
H    0.8093    6.3609    4.3859
H    2.3518    0.9730    4.0571
N    1.0807    4.4846    3.5441
N    2.7660    0.5338    3.2173
C    3.0481    5.6367    1.8763
H    3.5599    0.9332    2.6948
C    4.0812    6.2415    1.0334
C    1.7079    3.7455    2.5905
H    1.4294    2.6958    2.5394
H    3.1552    3.6503    1.0153
O    1.3890    2.0867    5.3214
O    1.3937    3.8677    6.5752
C    3.2802    0.7477    7.0605
C    3.5384    2.8407    8.2270
C    4.5763    2.2253    8.9815
H    5.1416    2.8073    9.7074
H    3.5991    4.5266    9.3785
N    4.8703    0.9310    8.8655
N    3.1849    4.0874    8.5388
C    2.9029    2.0831    7.1978
H    2.3911    4.4868    8.0162
C    1.8698    2.6879    6.3549
C    4.2430    0.1919    7.9119
H    4.5215    6.2494    7.8608
H    2.7958    0.0967    6.3368
Ni    0.0000    3.5536    15.5110
O    7.3399    1.4669    10.6429
O    7.3447    6.7931    11.8966
C    9.2311    2.8059    12.3819
C    9.4894    0.7129    13.5484
C    10.5272    1.3283    14.3030
H    11.0926    0.7463    15.0288
H    9.5501    6.1342    14.7000
N    10.8212    2.6226    14.1870
N    9.1359    6.5734    13.8602
C    8.8538    1.4705    12.5192
H    8.3420    6.1740    13.3377
C    7.8207    0.8657    11.6763
C    10.1940    3.3617    13.2334
H    10.4725    4.4114    13.1823
H    8.7467    3.4569    11.6582
Ni    5.9510    0.0000    20.8324
O    10.5129    5.0205    15.9643
O    10.5082    3.2395    17.2181
C    8.6217    6.3595    17.7034
C    8.3635    4.2665    18.8699
C    7.3256    4.8819    19.6244
H    6.7603    4.2999    20.3503
H    8.3028    2.5806    20.0214
N    7.0316    6.1762    19.5084
N    8.7170    3.0198    19.1817
C    8.9990    5.0241    17.8407
H    9.5108    2.6204    18.6591
C    10.0321    4.4193    16.9978
C    7.6589    6.9153    18.5548
H    7.3804    0.8578    18.5037
H    9.1061    7.0105    16.9797
O    4.5620    5.6403    10.6429
O    4.5572    0.3141    11.8966
C    2.6708    4.3013    12.3819
C    2.4125    6.3943    13.5484
C    1.3747    5.7789    14.3030
H    0.8093    6.3609    15.0288
H    2.3518    0.9730    14.7000
N    1.0807    4.4846    14.1870
N    2.7660    0.5338    13.8602
C    3.0481    5.6367    12.5192
H    3.5599    0.9332    13.3377
C    4.0812    6.2415    11.6763
C    1.7079    3.7455    13.2334
H    1.4294    2.6958    13.1823
H    3.1552    3.6503    11.6582
O    1.3890    2.0867    15.9643
O    1.3937    3.8677    17.2181
C    3.2802    0.7477    17.7034
C    3.5384    2.8407    18.8699
C    4.5763    2.2253    19.6244
H    5.1416    2.8073    20.3503
H    3.5991    4.5266    20.0214
N    4.8703    0.9310    19.5084
N    3.1849    4.0874    19.1817
C    2.9029    2.0831    17.8407
H    2.3911    4.4868    18.6591
C    1.8698    2.6879    16.9978
C    4.2430    0.1919    18.5548
H    4.5215    6.2494    18.5037
H    2.7958    0.0967    16.9797
Ni    0.0000    10.6608    4.8681
O    7.3399    8.5741    0.0000
O    7.3447    13.9003    1.2537
C    9.2311    9.9131    1.7390
C    9.4894    7.8201    2.9055
C    10.5272    8.4355    3.6601
H    11.0926    7.8535    4.3859
H    9.5501    13.2414    4.0571
N    10.8212    9.7298    3.5441
N    9.1359    13.6806    3.2173
C    8.8538    8.5777    1.8763
H    8.3420    13.2812    2.6948
C    7.8207    7.9729    1.0334
C    10.1940    10.4689    2.5905
H    10.4725    11.5186    2.5394
H    8.7467    10.5641    1.0153
Ni    5.9510    7.1072    10.1895
O    10.5129    12.1277    5.3214
O    10.5082    10.3467    6.5752
C    8.6217    13.4667    7.0605
C    8.3635    11.3737    8.2270
C    7.3256    11.9891    8.9815
H    6.7603    11.4071    9.7074
H    8.3028    9.6878    9.3785
N    7.0316    13.2834    8.8655
N    8.7170    10.1270    8.5388
C    8.9990    12.1313    7.1978
H    9.5108    9.7276    8.0162
C    10.0321    11.5265    6.3549
C    7.6589    14.0225    7.9119
H    7.3804    7.9650    7.8608
H    9.1061    14.1177    6.3368
O    4.5620    12.7475    0.0000
O    4.5572    7.4213    1.2537
C    2.6708    11.4085    1.7390
C    2.4125    13.5015    2.9055
C    1.3747    12.8861    3.6601
H    0.8093    13.4681    4.3859
H    2.3518    8.0802    4.0571
N    1.0807    11.5918    3.5441
N    2.7660    7.6410    3.2173
C    3.0481    12.7439    1.8763
H    3.5599    8.0404    2.6948
C    4.0812    13.3487    1.0334
C    1.7079    10.8527    2.5905
H    1.4294    9.8030    2.5394
H    3.1552    10.7575    1.0153
O    1.3890    9.1939    5.3214
O    1.3937    10.9749    6.5752
C    3.2802    7.8549    7.0605
C    3.5384    9.9479    8.2270
C    4.5763    9.3325    8.9815
H    5.1416    9.9145    9.7074
H    3.5991    11.6338    9.3785
N    4.8703    8.0382    8.8655
N    3.1849    11.1946    8.5388
C    2.9029    9.1903    7.1978
H    2.3911    11.5940    8.0162
C    1.8698    9.7951    6.3549
C    4.2430    7.2991    7.9119
H    4.5215    13.3566    7.8608
H    2.7958    7.2039    6.3368
Ni    0.0000    10.6608    15.5110
O    7.3399    8.5741    10.6429
O    7.3447    13.9003    11.8966
C    9.2311    9.9131    12.3819
C    9.4894    7.8201    13.5484
C    10.5272    8.4355    14.3030
H    11.0926    7.8535    15.0288
H    9.5501    13.2414    14.7000
N    10.8212    9.7298    14.1870
N    9.1359    13.6806    13.8602
C    8.8538    8.5777    12.5192
H    8.3420    13.2812    13.3377
C    7.8207    7.9729    11.6763
C    10.1940    10.4689    13.2334
H    10.4725    11.5186    13.1823
H    8.7467    10.5641    11.6582
Ni    5.9510    7.1072    20.8324
O    10.5129    12.1277    15.9643
O    10.5082    10.3467    17.2181
C    8.6217    13.4667    17.7034
C    8.3635    11.3737    18.8699
C    7.3256    11.9891    19.6244
H    6.7603    11.4071    20.3503
H    8.3028    9.6878    20.0214
N    7.0316    13.2834    19.5084
N    8.7170    10.1270    19.1817
C    8.9990    12.1313    17.8407
H    9.5108    9.7276    18.6591
C    10.0321    11.5265    16.9978
C    7.6589    14.0225    18.5548
H    7.3804    7.9650    18.5037
H    9.1061    14.1177    16.9797
O    4.5620    12.7475    10.6429
O    4.5572    7.4213    11.8966
C    2.6708    11.4085    12.3819
C    2.4125    13.5015    13.5484
C    1.3747    12.8861    14.3030
H    0.8093    13.4681    15.0288
H    2.3518    8.0802    14.7000
N    1.0807    11.5918    14.1870
N    2.7660    7.6410    13.8602
C    3.0481    12.7439    12.5192
H    3.5599    8.0404    13.3377
C    4.0812    13.3487    11.6763
C    1.7079    10.8527    13.2334
H    1.4294    9.8030    13.1823
H    3.1552    10.7575    11.6582
O    1.3890    9.1939    15.9643
O    1.3937    10.9749    17.2181
C    3.2802    7.8549    17.7034
C    3.5384    9.9479    18.8699
C    4.5763    9.3325    19.6244
H    5.1416    9.9145    20.3503
H    3.5991    11.6338    20.0214
N    4.8703    8.0382    19.5084
N    3.1849    11.1946    19.1817
C    2.9029    9.1903    17.8407
H    2.3911    11.5940    18.6591
C    1.8698    9.7951    16.9978
C    4.2430    7.2991    18.5548
H    4.5215    13.3566    18.5037
H    2.7958    7.2039    16.9797
Ni    11.9019    3.5536    4.8681
O    19.2418    1.4669    0.0000
O    19.2466    6.7931    1.2537
C    21.1330    2.8059    1.7390
C    21.3913    0.7129    2.9055
C    22.4291    1.3283    3.6601
H    22.9945    0.7463    4.3859
H    21.4520    6.1342    4.0571
N    22.7231    2.6226    3.5441
N    21.0378    6.5734    3.2173
C    20.7557    1.4705    1.8763
H    20.2439    6.1740    2.6948
C    19.7226    0.8657    1.0334
C    22.0959    3.3617    2.5905
H    22.3744    4.4114    2.5394
H    20.6486    3.4569    1.0153
Ni    17.8529    0.0000    10.1895
O    22.4148    5.0205    5.3214
O    22.4101    3.2395    6.5752
C    20.5236    6.3595    7.0605
C    20.2654    4.2665    8.2270
C    19.2275    4.8819    8.9815
H    18.6622    4.2999    9.7074
H    20.2047    2.5806    9.3785
N    18.9335    6.1762    8.8655
N    20.6189    3.0198    8.5388
C    20.9009    5.0241    7.1978
H    21.4127    2.6204    8.0162
C    21.9340    4.4193    6.3549
C    19.5608    6.9153    7.9119
H    19.2823    0.8578    7.8608
H    21.0080    7.0105    6.3368
O    16.4639    5.6403    0.0000
O    16.4591    0.3141    1.2537
C    14.5727    4.3013    1.7390
C    14.3144    6.3943    2.9055
C    13.2766    5.7789    3.6601
H    12.7112    6.3609    4.3859
H    14.2537    0.9730    4.0571
N    12.9826    4.4846    3.5441
N    14.6679    0.5338    3.2173
C    14.9500    5.6367    1.8763
H    15.4618    0.9332    2.6948
C    15.9831    6.2415    1.0334
C    13.6098    3.7455    2.5905
H    13.3313    2.6958    2.5394
H    15.0571    3.6503    1.0153
O    13.2909    2.0867    5.3214
O    13.2956    3.8677    6.5752
C    15.1821    0.7477    7.0605
C    15.4403    2.8407    8.2270
C    16.4782    2.2253    8.9815
H    17.0435    2.8073    9.7074
H    15.5010    4.5266    9.3785
N    16.7722    0.9310    8.8655
N    15.0868    4.0874    8.5388
C    14.8048    2.0831    7.1978
H    14.2930    4.4868    8.0162
C    13.7717    2.6879    6.3549
C    16.1449    0.1919    7.9119
H    16.4234    6.2494    7.8608
H    14.6977    0.0967    6.3368
Ni    11.9019    3.5536    15.5110
O    19.2418    1.4669    10.6429
O    19.2466    6.7931    11.8966
C    21.1330    2.8059    12.3819
C    21.3913    0.7129    13.5484
C    22.4291    1.3283    14.3030
H    22.9945    0.7463    15.0288
H    21.4520    6.1342    14.7000
N    22.7231    2.6226    14.1870
N    21.0378    6.5734    13.8602
C    20.7557    1.4705    12.5192
H    20.2439    6.1740    13.3377
C    19.7226    0.8657    11.6763
C    22.0959    3.3617    13.2334
H    22.3744    4.4114    13.1823
H    20.6486    3.4569    11.6582
Ni    17.8529    0.0000    20.8324
O    22.4148    5.0205    15.9643
O    22.4101    3.2395    17.2181
C    20.5236    6.3595    17.7034
C    20.2654    4.2665    18.8699
C    19.2275    4.8819    19.6244
H    18.6622    4.2999    20.3503
H    20.2047    2.5806    20.0214
N    18.9335    6.1762    19.5084
N    20.6189    3.0198    19.1817
C    20.9009    5.0241    17.8407
H    21.4127    2.6204    18.6591
C    21.9340    4.4193    16.9978
C    19.5608    6.9153    18.5548
H    19.2823    0.8578    18.5037
H    21.0080    7.0105    16.9797
O    16.4639    5.6403    10.6429
O    16.4591    0.3141    11.8966
C    14.5727    4.3013    12.3819
C    14.3144    6.3943    13.5484
C    13.2766    5.7789    14.3030
H    12.7112    6.3609    15.0288
H    14.2537    0.9730    14.7000
N    12.9826    4.4846    14.1870
N    14.6679    0.5338    13.8602
C    14.9500    5.6367    12.5192
H    15.4618    0.9332    13.3377
C    15.9831    6.2415    11.6763
C    13.6098    3.7455    13.2334
H    13.3313    2.6958    13.1823
H    15.0571    3.6503    11.6582
O    13.2909    2.0867    15.9643
O    13.2956    3.8677    17.2181
C    15.1821    0.7477    17.7034
C    15.4403    2.8407    18.8699
C    16.4782    2.2253    19.6244
H    17.0435    2.8073    20.3503
H    15.5010    4.5266    20.0214
N    16.7722    0.9310    19.5084
N    15.0868    4.0874    19.1817
C    14.8048    2.0831    17.8407
H    14.2930    4.4868    18.6591
C    13.7717    2.6879    16.9978
C    16.1449    0.1919    18.5548
H    16.4234    6.2494    18.5037
H    14.6977    0.0967    16.9797
Ni    11.9019    10.6608    4.8681
O    19.2418    8.5741    0.0000
O    19.2466    13.9003    1.2537
C    21.1330    9.9131    1.7390
C    21.3913    7.8201    2.9055
C    22.4291    8.4355    3.6601
H    22.9945    7.8535    4.3859
H    21.4520    13.2414    4.0571
N    22.7231    9.7298    3.5441
N    21.0378    13.6806    3.2173
C    20.7557    8.5777    1.8763
H    20.2439    13.2812    2.6948
C    19.7226    7.9729    1.0334
C    22.0959    10.4689    2.5905
H    22.3744    11.5186    2.5394
H    20.6486    10.5641    1.0153
Ni    17.8529    7.1072    10.1895
O    22.4148    12.1277    5.3214
O    22.4101    10.3467    6.5752
C    20.5236    13.4667    7.0605
C    20.2654    11.3737    8.2270
C    19.2275    11.9891    8.9815
H    18.6622    11.4071    9.7074
H    20.2047    9.6878    9.3785
N    18.9335    13.2834    8.8655
N    20.6189    10.1270    8.5388
C    20.9009    12.1313    7.1978
H    21.4127    9.7276    8.0162
C    21.9340    11.5265    6.3549
C    19.5608    14.0225    7.9119
H    19.2823    7.9650    7.8608
H    21.0080    14.1177    6.3368
O    16.4639    12.7475    0.0000
O    16.4591    7.4213    1.2537
C    14.5727    11.4085    1.7390
C    14.3144    13.5015    2.9055
C    13.2766    12.8861    3.6601
H    12.7112    13.4681    4.3859
H    14.2537    8.0802    4.0571
N    12.9826    11.5918    3.5441
N    14.6679    7.6410    3.2173
C    14.9500    12.7439    1.8763
H    15.4618    8.0404    2.6948
C    15.9831    13.3487    1.0334
C    13.6098    10.8527    2.5905
H    13.3313    9.8030    2.5394
H    15.0571    10.7575    1.0153
O    13.2909    9.1939    5.3214
O    13.2956    10.9749    6.5752
C    15.1821    7.8549    7.0605
C    15.4403    9.9479    8.2270
C    16.4782    9.3325    8.9815
H    17.0435    9.9145    9.7074
H    15.5010    11.6338    9.3785
N    16.7722    8.0382    8.8655
N    15.0868    11.1946    8.5388
C    14.8048    9.1903    7.1978
H    14.2930    11.5940    8.0162
C    13.7717    9.7951    6.3549
C    16.1449    7.2991    7.9119
H    16.4234    13.3566    7.8608
H    14.6977    7.2039    6.3368
Ni    11.9019    10.6608    15.5110
O    19.2418    8.5741    10.6429
O    19.2466    13.9003    11.8966
C    21.1330    9.9131    12.3819
C    21.3913    7.8201    13.5484
C    22.4291    8.4355    14.3030
H    22.9945    7.8535    15.0288
H    21.4520    13.2414    14.7000
N    22.7231    9.7298    14.1870
N    21.0378    13.6806    13.8602
C    20.7557    8.5777    12.5192
H    20.2439    13.2812    13.3377
C    19.7226    7.9729    11.6763
C    22.0959    10.4689    13.2334
H    22.3744    11.5186    13.1823
H    20.6486    10.5641    11.6582
Ni    17.8529    7.1072    20.8324
O    22.4148    12.1277    15.9643
O    22.4101    10.3467    17.2181
C    20.5236    13.4667    17.7034
C    20.2654    11.3737    18.8699
C    19.2275    11.9891    19.6244
H    18.6622    11.4071    20.3503
H    20.2047    9.6878    20.0214
N    18.9335    13.2834    19.5084
N    20.6189    10.1270    19.1817
C    20.9009    12.1313    17.8407
H    21.4127    9.7276    18.6591
C    21.9340    11.5265    16.9978
C    19.5608    14.0225    18.5548
H    19.2823    7.9650    18.5037
H    21.0080    14.1177    16.9797
O    16.4639    12.7475    10.6429
O    16.4591    7.4213    11.8966
C    14.5727    11.4085    12.3819
C    14.3144    13.5015    13.5484
C    13.2766    12.8861    14.3030
H    12.7112    13.4681    15.0288
H    14.2537    8.0802    14.7000
N    12.9826    11.5918    14.1870
N    14.6679    7.6410    13.8602
C    14.9500    12.7439    12.5192
H    15.4618    8.0404    13.3377
C    15.9831    13.3487    11.6763
C    13.6098    10.8527    13.2334
H    13.3313    9.8030    13.1823
H    15.0571    10.7575    11.6582
O    13.2909    9.1939    15.9643
O    13.2956    10.9749    17.2181
C    15.1821    7.8549    17.7034
C    15.4403    9.9479    18.8699
C    16.4782    9.3325    19.6244
H    17.0435    9.9145    20.3503
H    15.5010    11.6338    20.0214
N    16.7722    8.0382    19.5084
N    15.0868    11.1946    19.1817
C    14.8048    9.1903    17.8407
H    14.2930    11.5940    18.6591
C    13.7717    9.7951    16.9978
C    16.1449    7.2991    18.5548
H    16.4234    13.3566    18.5037
H    14.6977    7.2039    16.9797
