78

Ni	2.8986	9.4112	8.5926
Ni	6.1753	3.1058	3.4848
O	1.4483	4.3542	3.9337
O	4.4416	8.1524	9.0546
O	4.6367	1.8473	3.8752
O	1.3650	10.6743	9.0030
O	5.8061	4.4603	4.9624
O	2.5424	8.0327	10.0675
O	0.2512	1.6926	4.9427
O	3.2372	10.8047	10.0626
N	3.6968	10.6606	7.2416
N	0.7126	1.8642	2.1170
N	2.1722	8.1441	7.2520
N	5.4402	4.3948	2.1375
C	3.4855	12.1483	5.3630
C	0.4749	0.3896	0.2292
H	5.8697	0.0337	9.6938
C	4.7607	0.1474	5.6148
C	1.7433	12.3699	0.4741
C	5.5034	12.1502	6.6821
C	2.4985	0.3551	1.5400
H	0.2477	12.5084	6.9199
C	2.4836	6.6337	5.4082
C	5.7280	5.9036	0.2867
H	3.1330	6.2729	4.6160
C	2.9276	7.6810	6.2307
C	6.1883	4.8676	1.1160
H	3.8999	8.1465	6.0889
H	0.9159	4.4189	0.9763
C	2.9826	11.1359	6.1975
C	-0.0104	1.4055	1.0711
H	1.9939	10.7090	6.0470
H	5.2609	1.8501	0.9235
C	4.9364	11.1381	7.4751
C	1.9482	1.3719	2.3406
H	5.4856	10.7097	8.3094
H	2.5089	1.7921	3.1727
C	0.9457	7.6265	7.4730
C	4.2108	4.9046	2.3569
H	0.3633	8.0518	8.2873
H	3.6361	4.4774	3.1753
C	0.4386	6.5758	6.6918
C	3.6876	5.9450	1.5694
H	2.6982	6.3268	1.8007
C	1.2275	6.0647	5.6520
C	4.4634	6.4578	0.5203
C	5.3126	1.2438	4.7942
C	2.0502	11.2676	9.9216
C	0.7355	4.9402	4.8359
C	3.7317	7.5663	9.9569
C	2.6317	12.6666	4.1893
C	1.2531	12.0278	4.0028
H	2.4652	13.7559	4.3323
H	3.1948	12.4983	3.2462
H	0.6189	12.2000	4.8984
H	0.7480	12.4899	3.1283
H	1.3508	10.9384	3.8090
C	3.9096	-0.1799	1.8432
C	4.6457	0.4462	3.0305
H	3.8337	-1.2692	2.0494
H	4.5457	-0.0158	0.9470
H	4.0816	0.2772	3.9724
H	5.6444	-0.0280	3.1365
H	4.7959	1.5345	2.8665
C	-0.9605	6.0063	6.9846
C	-1.7350	6.6393	8.1433
H	-1.5857	6.1289	6.0742
H	-0.8560	4.9252	7.2195
H	-1.9145	7.7183	7.9493
H	-2.7210	6.1383	8.2449
H	-1.1825	6.5107	9.0984
C	6.6184	6.4138	-0.8643
C	7.9827	5.7403	-1.0332
H	6.0692	6.2732	-1.8200
H	6.8114	7.4963	-0.7036
H	7.8594	4.6565	-1.2435
H	8.5168	6.1997	-1.8918
H	8.6039	5.8836	-0.1236
