94

Ni	2.8986	9.4112	8.5926
Ni	6.1753	3.1058	3.4848
O	1.4483	4.3542	3.9337
O	4.4416	8.1524	9.0546
O	4.6367	1.8473	3.8752
O	1.3650	10.6743	9.0030
O	5.8061	4.4603	4.9624
O	2.5424	8.0327	10.0675
O	0.2512	1.6926	4.9427
O	3.2372	10.8047	10.0626
N	3.6968	10.6606	7.2416
N	0.7126	1.8642	2.1170
N	2.1722	8.1441	7.2520
N	5.4402	4.3948	2.1375
C	3.4855	12.1483	5.3630
C	0.4749	0.3896	0.2292
H	2.8645	12.5181	4.5527
H	5.8697	0.0337	9.6938
C	4.7607	0.1474	5.6148
C	1.7433	12.3699	0.4741
C	5.5034	12.1502	6.6821
C	2.4985	0.3551	1.5400
H	0.2477	12.5084	6.9199
H	3.4916	12.5067	1.7734
C	2.4836	6.6337	5.4082
C	5.7280	5.9036	0.2867
H	3.1330	6.2729	4.6160
H	-0.1083	6.2667	9.7662
C	2.9276	7.6810	6.2307
C	6.1883	4.8676	1.1160
H	0.9159	4.4189	0.9763
C	2.9826	11.1359	6.1975
C	-0.0104	1.4055	1.0711
H	5.2609	1.8501	0.9235
C	4.9364	11.1381	7.4751
C	1.9482	1.3719	2.3406
H	5.4856	10.7097	8.3094
C	0.9457	7.6265	7.4730
C	4.2108	4.9046	2.3569
H	0.3633	8.0518	8.2873
C	0.4386	6.5758	6.6918
C	3.6876	5.9450	1.5694
H	5.7077	6.1769	6.9197
H	2.6982	6.3268	1.8007
C	1.2275	6.0647	5.6520
C	4.4634	6.4578	0.5203
C	5.3126	1.2438	4.7942
C	2.0502	11.2676	9.9216
C	0.7355	4.9402	4.8359
C	3.7317	7.5663	9.9569
O	1.7140	10.6391	5.9055
C	1.0694	9.6470	6.6188
C	-0.2972	9.3815	5.9901
H	0.9314	9.9736	7.6734
H	1.6740	8.7134	6.5915
C	-1.0510	8.2899	6.7442
H	-0.1617	9.0648	4.9330
H	-0.8990	10.3161	6.0073
H	-0.4770	7.3390	6.7230
H	-2.0380	8.1201	6.2645
H	-1.2161	8.5934	7.8000
O	2.7386	1.8554	3.3846
C	2.3607	2.8488	4.2672
C	3.4934	3.0969	5.2615
H	1.4492	2.5310	4.8205
H	2.1513	3.7871	3.7073
C	3.1238	4.1892	6.2609
H	4.4080	3.4047	4.7095
H	3.7109	2.1574	5.8149
H	2.9214	5.1446	5.7314
H	3.9650	4.3461	6.9685
H	2.2225	3.8943	6.8395
O	4.1787	8.2262	5.9540
C	4.7666	9.2578	6.6603
C	6.1328	9.5699	6.0527
H	4.1237	10.1641	6.6038
H	4.8975	8.9567	7.7233
C	6.8249	10.7061	6.7999
H	6.7732	8.6623	6.0990
H	6.0049	9.8613	4.9874
H	6.9819	10.4292	7.8643
H	7.8130	10.9091	6.3359
H	6.2117	11.6311	6.7499
O	3.4008	4.4160	3.3832
C	3.7516	3.4002	4.2513
C	2.6038	3.1539	5.2287
H	4.6623	3.6917	4.8202
H	3.9508	2.4686	3.6765
C	2.9432	2.0373	6.2116
H	1.6901	2.8724	4.6613
H	2.3966	4.0868	5.7969
H	3.1349	1.0882	5.6669
H	2.0917	1.8822	6.9072
H	3.8431	2.3056	6.8053
