164

Ni	2.8986	9.4112	8.5926
Ni	6.1753	3.1058	3.4848
O	1.4483	4.3542	3.9337
O	4.4416	8.1524	9.0546
O	4.6367	1.8473	3.8752
O	1.3650	10.6743	9.0030
O	5.8061	4.4603	4.9624
O	2.5424	8.0327	10.0675
O	0.2512	1.6926	4.9427
O	3.2372	10.8047	10.0626
N	3.6968	10.6606	7.2416
N	0.7126	1.8642	2.1170
N	2.1722	8.1441	7.2520
N	5.4402	4.3948	2.1375
C	3.4855	12.1483	5.3630
C	0.4749	0.3896	0.2292
H	2.8645	12.5181	4.5527
H	5.8697	0.0337	9.6938
C	4.7607	0.1474	5.6148
C	1.7433	12.3699	0.4741
C	5.5034	12.1502	6.6821
C	2.4985	0.3551	1.5400
H	0.2477	12.5084	6.9199
H	3.4916	12.5067	1.7734
C	2.4836	6.6337	5.4082
C	5.7280	5.9036	0.2867
H	3.1330	6.2729	4.6160
H	-0.1083	6.2667	9.7662
C	2.9276	7.6810	6.2307
C	6.1883	4.8676	1.1160
H	3.8999	8.1465	6.0889
H	0.9159	4.4189	0.9763
C	2.9826	11.1359	6.1975
C	-0.0104	1.4055	1.0711
H	5.2609	1.8501	0.9235
C	4.9364	11.1381	7.4751
C	1.9482	1.3719	2.3406
H	5.4856	10.7097	8.3094
H	2.5089	1.7921	3.1727
C	0.9457	7.6265	7.4730
C	4.2108	4.9046	2.3569
H	3.6361	4.4774	3.1753
C	0.4386	6.5758	6.6918
C	3.6876	5.9450	1.5694
H	5.7077	6.1769	6.9197
H	2.6982	6.3268	1.8007
C	1.2275	6.0647	5.6520
C	4.4634	6.4578	0.5203
C	5.3126	1.2438	4.7942
C	2.0502	11.2676	9.9216
C	0.7355	4.9402	4.8359
C	3.7317	7.5663	9.9569
Ni	9.1514	9.4112	8.5926
Ni	12.4281	3.1058	3.4848
O	7.7011	4.3542	3.9337
O	10.6944	8.1524	9.0546
O	10.8895	1.8473	3.8752
O	7.6178	10.6743	9.0030
O	12.0589	4.4603	4.9624
O	8.7952	8.0327	10.0675
O	6.5040	1.6926	4.9427
O	9.4900	10.8047	10.0626
N	9.9496	10.6606	7.2416
N	6.9654	1.8642	2.1170
N	8.4250	8.1441	7.2520
N	11.6930	4.3948	2.1375
C	9.7383	12.1483	5.3630
C	6.7277	0.3896	0.2292
H	9.1173	12.5181	4.5527
H	12.1225	0.0337	9.6938
C	11.0135	0.1474	5.6148
C	7.9961	12.3699	0.4741
C	11.7562	12.1502	6.6821
C	8.7513	0.3551	1.5400
H	6.5005	12.5084	6.9199
H	9.7444	12.5067	1.7734
C	8.7364	6.6337	5.4082
C	11.9808	5.9036	0.2867
H	9.3858	6.2729	4.6160
H	6.1445	6.2667	9.7662
C	9.1804	7.6810	6.2307
C	12.4411	4.8676	1.1160
H	10.1527	8.1465	6.0889
C	9.2354	11.1359	6.1975
C	6.2424	1.4055	1.0711
C	11.1892	11.1381	7.4751
C	8.2010	1.3719	2.3406
H	11.7384	10.7097	8.3094
C	7.1985	7.6265	7.4730
C	10.4636	4.9046	2.3569
C	6.6914	6.5758	6.6918
C	9.9404	5.9450	1.5694
H	11.9605	6.1769	6.9197
H	8.9510	6.3268	1.8007
C	7.4803	6.0647	5.6520
C	10.7162	6.4578	0.5203
C	11.5654	1.2438	4.7942
C	8.3030	11.2676	9.9216
C	6.9883	4.9402	4.8359
C	9.9845	7.5663	9.9569
O	1.7140	10.6390	5.9056
C	1.0700	9.6469	6.6194
C	-0.2914	9.3789	5.9972
H	0.9265	9.9700	7.6737
H	1.6687	8.7103	6.5925
H	-0.9087	10.3021	6.0199
H	-0.8140	8.5819	6.5670
H	-0.1699	9.0483	4.9437
O	-1.2716	1.9239	0.7839
C	-1.8989	2.9218	1.5045
C	-3.2569	3.2147	0.8860
H	-1.2856	3.8492	1.4818
H	-2.0458	2.5950	2.5571
H	-3.1319	3.5494	-0.1658
H	-3.7661	4.0165	1.4611
H	-3.8885	2.3012	0.9044
O	0.1287	8.1166	8.4910
C	0.4675	9.1430	9.3513
C	-0.6786	9.3900	10.3198
H	0.6583	10.0744	8.7745
H	1.3757	8.8682	9.9311
H	-1.5956	9.6725	9.7602
H	-0.4119	10.2145	11.0142
H	-0.8816	8.4720	10.9113
O	7.4504	4.3440	0.8439
C	8.0547	3.3263	1.5564
C	9.4224	3.0341	0.9592
H	7.4343	2.4050	1.5027
H	8.1832	3.6306	2.6182
H	9.3158	2.7217	-0.1014
H	9.9132	2.2164	1.5280
H	10.0611	3.9415	1.0088
O	7.9668	10.6390	5.9056
C	7.3228	9.6469	6.6194
C	5.9614	9.3789	5.9972
H	7.1793	9.9700	7.6737
H	7.9215	8.7103	6.5925
H	5.3441	10.3021	6.0199
H	5.4388	8.5819	6.5670
H	6.0829	9.0483	4.9437
O	8.9913	1.8555	3.3847
C	8.6126	2.8488	4.2669
C	9.7374	3.0995	5.2591
H	7.7037	2.5345	4.8251
H	8.4054	3.7902	3.7125
H	9.9563	2.1714	5.8289
H	9.4387	3.8975	5.9712
H	10.6546	3.4212	4.7214
O	6.3815	8.1166	8.4910
C	6.7203	9.1430	9.3513
C	5.5742	9.3900	10.3198
H	6.9111	10.0744	8.7745
H	7.6285	8.8682	9.9311
H	4.6572	9.6725	9.7602
H	5.8409	10.2145	11.0142
H	5.3712	8.4720	10.9113
O	9.6537	4.4159	3.3833
C	10.0053	3.4001	4.2511
C	8.8654	3.1512	5.2263
H	10.2023	2.4655	3.6817
H	10.9132	3.6882	4.8248
H	7.9487	2.8555	4.6729
H	9.1423	2.3353	5.9268
H	8.6563	4.0724	5.8107
