94

Ni	2.8986	9.4112	8.5926
Ni	6.1753	3.1058	3.4848
O	1.4483	4.3542	3.9337
O	4.4416	8.1524	9.0546
O	4.6367	1.8473	3.8752
O	1.3650	10.6743	9.0030
O	5.8061	4.4603	4.9624
O	2.5424	8.0327	10.0675
O	0.2512	1.6926	4.9427
O	3.2372	10.8047	10.0626
N	3.6968	10.6606	7.2416
N	0.7126	1.8642	2.1170
N	2.1722	8.1441	7.2520
N	5.4402	4.3948	2.1375
C	3.4855	12.1483	5.3630
C	0.4749	0.3896	0.2292
H	5.8697	0.0337	9.6938
C	4.7607	0.1474	5.6148
C	1.7433	12.3699	0.4741
C	5.5034	12.1502	6.6821
C	2.4985	0.3551	1.5400
H	0.2477	12.5084	6.9199
C	2.4836	6.6337	5.4082
C	5.7280	5.9036	0.2867
C	2.9276	7.6810	6.2307
C	6.1883	4.8676	1.1160
H	3.8999	8.1465	6.0889
H	0.9159	4.4189	0.9763
C	2.9826	11.1359	6.1975
C	-0.0104	1.4055	1.0711
H	1.9939	10.7090	6.0470
H	5.2609	1.8501	0.9235
C	4.9364	11.1381	7.4751
C	1.9482	1.3719	2.3406
H	5.4856	10.7097	8.3094
H	2.5089	1.7921	3.1727
C	0.9457	7.6265	7.4730
C	4.2108	4.9046	2.3569
H	0.3633	8.0518	8.2873
H	3.6361	4.4774	3.1753
C	0.4386	6.5758	6.6918
C	3.6876	5.9450	1.5694
H	5.7077	6.1769	6.9197
H	2.6982	6.3268	1.8007
C	1.2275	6.0647	5.6520
C	4.4634	6.4578	0.5203
C	5.3126	1.2438	4.7942
C	2.0502	11.2676	9.9216
C	0.7355	4.9402	4.8359
C	3.7317	7.5663	9.9569
O_fg	2.7522	12.6295	4.3131
C_fg	1.4873	12.2075	3.9517
C_fg	1.0238	12.9956	2.7279
H_fg	0.7795	12.3840	4.7918
H_fg	1.5112	11.1234	3.7030
C_fg	-0.3724	12.5651	2.2881
H_fg	1.7356	12.8286	1.8904
H_fg	1.0091	14.0803	2.9716
H_fg	-0.3775	11.4871	2.0197
H_fg	-0.6805	13.1543	1.3988
H_fg	-1.1058	12.7418	3.1035
O_fg	3.7480	-0.1408	1.7834
C_fg	4.5955	0.2678	2.7950
C_fg	5.8929	-0.5350	2.7204
H_fg	4.1120	0.0935	3.7818
H_fg	4.8258	1.3498	2.6763
C_fg	6.8654	-0.1197	3.8204
H_fg	6.3724	-0.3700	1.7309
H_fg	5.6636	-1.6175	2.8286
H_fg	7.1253	0.9558	3.7202
H_fg	7.7964	-0.7194	3.7399
H_fg	6.4148	-0.2948	4.8206
O_fg	3.2527	6.1638	4.3803
C_fg	4.5047	6.6315	4.0304
C_fg	5.0205	5.8403	2.8299
H_fg	5.2053	6.5011	4.8848
H_fg	4.4397	7.7087	3.7599
C_fg	6.4046	6.3205	2.4034
H_fg	4.3162	5.9612	1.9782
H_fg	5.0765	4.7620	3.0952
H_fg	6.3692	7.3924	2.1138
H_fg	6.7516	5.7278	1.5309
H_fg	7.1313	6.1904	3.2335
O_fg	6.4947	6.3785	-0.7433
C_fg	7.7546	5.9272	-1.0862
C_fg	8.2625	6.7180	-2.2903
H_fg	7.7066	4.8473	-1.3496
H_fg	8.4504	6.0738	-0.2305
C_fg	9.6550	6.2557	-2.7092
H_fg	8.3014	7.7987	-2.0322
H_fg	7.5628	6.5808	-3.1434
H_fg	10.3770	6.4023	-1.8777
H_fg	9.9959	6.8477	-3.5846
H_fg	9.6366	5.1814	-2.9917
