70

Ni	2.8986	9.4112	8.5926
Ni	6.1753	3.1058	3.4848
O	1.4483	4.3542	3.9337
O	4.4416	8.1524	9.0546
O	4.6367	1.8473	3.8752
O	1.3650	10.6743	9.0030
O	5.8061	4.4603	4.9624
O	2.5424	8.0327	10.0675
O	0.2512	1.6926	4.9427
O	3.2372	10.8047	10.0626
N	3.6968	10.6606	7.2416
N	0.7126	1.8642	2.1170
N	2.1722	8.1441	7.2520
N	5.4402	4.3948	2.1375
C	3.4855	12.1483	5.3630
C	0.4749	0.3896	0.2292
H	2.8645	12.5181	4.5527
H	5.8697	0.0337	9.6938
C	4.7607	0.1474	5.6148
C	1.7433	12.3699	0.4741
C	5.5034	12.1502	6.6821
C	2.4985	0.3551	1.5400
H	0.2477	12.5084	6.9199
H	3.4916	12.5067	1.7734
C	2.4836	6.6337	5.4082
C	5.7280	5.9036	0.2867
H	3.1330	6.2729	4.6160
H	-0.1083	6.2667	9.7662
C	2.9276	7.6810	6.2307
C	6.1883	4.8676	1.1160
H	3.8999	8.1465	6.0889
C	2.9826	11.1359	6.1975
C	-0.0104	1.4055	1.0711
H	5.2609	1.8501	0.9235
C	4.9364	11.1381	7.4751
C	1.9482	1.3719	2.3406
H	5.4856	10.7097	8.3094
C	0.9457	7.6265	7.4730
C	4.2108	4.9046	2.3569
H	3.6361	4.4774	3.1753
C	0.4386	6.5758	6.6918
C	3.6876	5.9450	1.5694
H	5.7077	6.1769	6.9197
H	2.6982	6.3268	1.8007
C	1.2275	6.0647	5.6520
C	4.4634	6.4578	0.5203
C	5.3126	1.2438	4.7942
C	2.0502	11.2676	9.9216
C	0.7355	4.9402	4.8359
C	3.7317	7.5663	9.9569
S_fg	1.3322	10.3980	5.9175
C_fg	0.4865	11.5779	7.0143
H_fg	-0.5989	11.3499	7.0027
H_fg	0.8495	11.4654	8.0572
H_fg	0.6183	12.6159	6.6435
S_fg	2.8857	2.0934	3.7393
C_fg	2.2128	0.9168	4.9531
H_fg	2.6670	1.1356	5.9411
H_fg	1.1138	1.0423	5.0456
H_fg	2.4856	-0.1234	4.6782
S_fg	-0.0302	8.3599	8.8368
C_fg	0.6549	7.2348	10.0919
H_fg	0.1801	7.4678	11.0668
H_fg	1.7487	7.3921	10.1969
H_fg	0.4140	6.1806	9.8414
S_fg	7.8260	4.0936	0.8603
C_fg	8.6759	5.2365	1.9924
H_fg	9.7555	4.9822	2.0005
H_fg	8.2879	5.1178	3.0255
H_fg	8.5773	6.2826	1.6345
