1296

Ni	2.8985	9.4111	8.5928
Ni	6.1754	3.1058	3.4848
O	1.4483	4.3541	3.9336
O	4.4415	8.1525	9.0545
O	4.6368	1.8472	3.8754
O	1.3650	10.6744	9.0030
O	5.8060	4.4603	4.9625
O	2.5425	8.0328	10.0677
O	0.2512	1.6927	4.9428
O	3.2371	10.8047	10.0627
N	3.6968	10.6607	7.2415
N	0.7124	1.8642	2.1169
N	2.1721	8.1440	7.2520
N	5.4401	4.3947	2.1376
C	3.4856	12.1482	5.3629
C	0.4749	0.3895	0.2293
H	2.8645	12.5181	4.5525
H	5.8697	0.0338	9.6938
C	4.7608	0.1475	5.6147
C	1.7433	12.3699	0.4741
C	5.5035	12.1502	6.6821
C	2.4985	0.3552	1.5399
H	0.2476	12.5084	6.9200
H	3.4916	12.5066	1.7732
C	2.4836	6.6336	5.4082
C	5.7280	5.9035	0.2867
H	3.1329	6.2730	4.6160
H	-0.1083	6.2667	9.7662
C	2.9276	7.6811	6.2305
C	6.1883	4.8676	1.1161
H	3.8999	8.1465	6.0891
H	0.9158	4.4190	0.9765
C	2.9826	11.1358	6.1975
C	-0.0105	1.4056	1.0711
H	5.2609	1.8502	0.9235
C	4.9364	11.1381	7.4752
C	1.9483	1.3718	2.3407
H	5.4857	10.7098	8.3095
C	0.9457	7.6265	7.4730
C	4.2107	4.9047	2.3567
H	3.6361	4.4774	3.1754
C	0.4385	6.5758	6.6916
C	3.6876	5.9451	1.5695
H	5.7078	6.1770	6.9197
H	2.6983	6.3268	1.8007
C	1.2274	6.0646	5.6520
C	4.4635	6.4578	0.5203
C	5.3125	1.2438	4.7942
C	2.0502	11.2676	9.9216
C	0.7355	4.9402	4.8358
C	3.7317	7.5664	9.9570
Ni	9.1513	9.4111	8.5928
Ni	12.4282	3.1058	3.4848
O	7.7011	4.3541	3.9336
O	10.6943	8.1525	9.0545
O	10.8896	1.8472	3.8754
O	7.6178	10.6744	9.0030
O	12.0588	4.4603	4.9625
O	8.7953	8.0328	10.0677
O	6.5040	1.6927	4.9428
O	9.4899	10.8047	10.0627
N	9.9496	10.6607	7.2415
N	6.9652	1.8642	2.1169
N	8.4249	8.1440	7.2520
N	11.6932	4.3947	2.1376
C	9.7384	12.1482	5.3629
C	6.7277	0.3895	0.2293
H	9.1173	12.5181	4.5525
H	12.1225	0.0338	9.6938
C	11.0136	0.1475	5.6147
C	7.9961	12.3699	0.4741
C	11.7563	12.1502	6.6821
C	8.7513	0.3552	1.5399
H	6.5004	12.5084	6.9200
H	9.7444	12.5066	1.7732
C	8.7364	6.6336	5.4082
C	11.9808	5.9035	0.2867
H	9.3857	6.2730	4.6160
H	6.1445	6.2667	9.7662
C	9.1804	7.6811	6.2305
C	12.4411	4.8676	1.1161
H	10.1527	8.1465	6.0891
C	9.2354	11.1358	6.1975
C	6.2423	1.4056	1.0711
H	8.2468	10.7090	6.0471
H	11.5137	1.8502	0.9235
C	11.1892	11.1381	7.4752
C	8.2011	1.3718	2.3407
C	7.1985	7.6265	7.4730
C	10.4638	4.9047	2.3567
C	6.6913	6.5758	6.6916
C	9.9404	5.9451	1.5695
H	11.9606	6.1770	6.9197
H	8.9511	6.3268	1.8007
C	7.4802	6.0646	5.6520
C	10.7163	6.4578	0.5203
C	11.5653	1.2438	4.7942
C	8.3030	11.2676	9.9216
C	6.9883	4.9402	4.8358
C	9.9845	7.5664	9.9570
F	1.7311	10.6126	5.9482
F	2.6930	1.8825	3.3865
F	0.1735	8.1450	8.4926
F	7.4317	4.3173	0.8858
F	11.9206	10.6153	8.5247
F	8.9458	1.8825	3.3865
F	6.4263	8.1450	8.4926
F	9.6986	4.3879	3.3850
Ni	2.6709	9.4111	18.8670
Ni	5.9478	3.1058	13.7590
O	1.2207	4.3541	14.2081
O	4.2139	8.1525	19.3290
O	4.4092	1.8472	14.1495
O	1.1374	10.6744	19.2772
O	5.5784	4.4603	15.2367
O	2.3149	8.0328	20.3418
O	0.0236	1.6927	15.2169
O	3.0095	10.8047	20.3369
N	3.4692	10.6607	17.5160
N	0.4848	1.8642	12.3914
N	1.9446	8.1440	17.5262
N	5.2125	4.3947	12.4117
C	3.2580	12.1482	15.6374
C	0.2473	0.3895	10.5035
H	2.6369	12.5181	14.8270
H	5.6421	0.0338	19.9680
C	4.5332	0.1473	15.8892
C	1.5157	12.3699	10.7485
C	5.2759	12.1502	16.9563
C	2.2709	0.3552	11.8144
H	0.0200	12.5084	17.1942
H	3.2640	12.5066	12.0477
C	2.2560	6.6336	15.6824
C	5.5004	5.9035	10.5608
H	2.9054	6.2730	14.8902
H	-0.3359	6.2667	20.0404
C	2.7000	7.6811	16.5050
C	5.9607	4.8676	11.3903
H	3.6723	8.1465	16.3632
H	0.6882	4.4190	11.2506
C	2.7550	11.1358	16.4717
C	-0.2381	1.4056	11.3453
H	5.0333	1.8502	11.1979
C	4.7089	11.1381	17.7493
C	1.7207	1.3718	12.6149
H	5.2581	10.7098	18.5837
C	0.7181	7.6265	17.7472
C	3.9831	4.9047	12.6312
H	3.4085	4.4774	13.4495
C	0.2109	6.5758	16.9661
C	3.4601	5.9451	11.8437
H	5.4802	6.1770	17.1939
H	2.4707	6.3268	12.0748
C	0.9998	6.0646	15.9265
C	4.2359	6.4578	10.7945
C	5.0851	1.2438	15.0684
C	1.8226	11.2676	20.1957
C	0.5079	4.9402	15.1103
C	3.5041	7.5664	20.2312
Ni	8.9237	9.4111	18.8670
Ni	12.2006	3.1058	13.7590
O	7.4735	4.3541	14.2081
O	10.4667	8.1525	19.3290
O	10.6617	1.8472	14.1495
O	7.3902	10.6744	19.2772
O	11.8312	4.4603	15.2367
O	8.5677	8.0328	20.3418
O	6.2764	1.6927	15.2169
O	9.2623	10.8047	20.3369
N	9.7220	10.6607	17.5160
N	6.7376	1.8642	12.3914
N	8.1974	8.1440	17.5262
N	11.4653	4.3947	12.4117
C	9.5108	12.1482	15.6374
C	6.5001	0.3895	10.5035
H	8.8897	12.5181	14.8270
H	11.8949	0.0338	19.9680
C	10.7860	0.1473	15.8892
C	7.7685	12.3699	10.7485
C	11.5287	12.1502	16.9563
C	8.5237	0.3552	11.8144
H	6.2728	12.5084	17.1942
H	9.5168	12.5066	12.0477
C	8.5088	6.6336	15.6824
C	11.7532	5.9035	10.5608
H	9.1582	6.2730	14.8902
H	5.9169	6.2667	20.0404
C	8.9528	7.6811	16.5050
C	12.2135	4.8676	11.3903
H	9.9251	8.1465	16.3632
C	9.0078	11.1358	16.4717
C	6.0147	1.4056	11.3453
H	8.0192	10.7090	16.3213
H	11.2861	1.8502	11.1979
C	10.9617	11.1381	17.7493
C	7.9735	1.3718	12.6149
C	6.9709	7.6265	17.7472
C	10.2362	4.9047	12.6312
C	6.4637	6.5758	16.9661
C	9.7129	5.9451	11.8437
H	11.7330	6.1770	17.1939
H	8.7235	6.3268	12.0748
C	7.2526	6.0646	15.9265
C	10.4887	6.4578	10.7945
C	11.3377	1.2438	15.0684
C	8.0754	11.2676	20.1957
C	6.7607	4.9402	15.1103
C	9.7569	7.5664	20.2312
F	1.5035	10.6126	16.2224
F	2.4654	1.8825	13.6607
F	-0.0541	8.1450	18.7668
F	7.2041	4.3173	11.1600
F	11.6930	10.6153	18.7988
F	8.7182	1.8825	13.6607
F	6.1987	8.1450	18.7668
F	9.4710	4.3879	13.6594
Ni	2.4434	9.4111	29.1411
Ni	5.7202	3.1058	24.0335
O	0.9931	4.3541	24.4823
O	3.9863	8.1525	29.6032
O	4.1813	1.8472	24.4237
O	0.9098	10.6744	29.5514
O	5.3508	4.4603	25.5108
O	2.0873	8.0328	30.6160
O	-0.2040	1.6927	25.4914
O	2.7820	10.8047	30.6111
N	3.2416	10.6607	27.7902
N	0.2573	1.8642	22.6656
N	1.7170	8.1442	27.8007
N	4.9849	4.3947	22.6859
C	3.0304	12.1484	25.9115
C	0.0197	0.3895	20.7777
H	2.4093	12.5181	25.1012
H	5.4145	0.0338	30.2424
C	4.3056	0.1475	26.1633
C	1.2881	12.3699	21.0227
C	5.0483	12.1502	27.2307
C	2.0433	0.3552	22.0886
H	-0.2075	12.5084	27.4684
H	3.0364	12.5066	22.3219
C	2.0284	6.6336	25.9568
C	5.2728	5.9035	20.8353
H	2.6778	6.2730	25.1647
H	-0.5635	6.2667	30.3149
C	2.4724	7.6811	26.7792
C	5.7331	4.8676	21.6644
H	3.4447	8.1465	26.6374
H	0.4606	4.4190	21.5248
C	2.5274	11.1358	26.7459
C	-0.4657	1.4056	21.6198
H	4.8057	1.8502	21.4721
C	4.4813	11.1381	28.0235
C	1.4931	1.3718	22.8890
H	5.0305	10.7098	28.8579
C	0.4905	7.6265	28.0217
C	3.7555	4.9047	22.9054
H	3.1809	4.4774	23.7237
C	-0.0167	6.5758	27.2403
C	3.2325	5.9451	22.1179
H	5.2526	6.1770	27.4684
H	2.2431	6.3268	22.3493
C	0.7722	6.0646	26.2006
C	4.0083	6.4578	21.0690
C	4.8573	1.2438	25.3428
C	1.5950	11.2676	30.4702
C	0.2803	4.9402	25.3845
C	3.2765	7.5664	30.5054
Ni	8.6962	9.4111	29.1411
Ni	11.9730	3.1058	24.0335
O	7.2459	4.3541	24.4823
O	10.2391	8.1525	29.6032
O	10.4341	1.8472	24.4237
O	7.1626	10.6744	29.5514
O	11.6036	4.4603	25.5108
O	8.3401	8.0328	30.6160
O	6.0488	1.6927	25.4914
O	9.0348	10.8047	30.6111
N	9.4944	10.6607	27.7902
N	6.5101	1.8642	22.6656
N	7.9698	8.1442	27.8007
N	11.2377	4.3947	22.6859
C	9.2832	12.1484	25.9115
C	6.2725	0.3895	20.7777
H	8.6621	12.5181	25.1012
H	11.6673	0.0338	30.2424
C	10.5584	0.1475	26.1633
C	7.5409	12.3699	21.0227
C	11.3011	12.1502	27.2307
C	8.2961	0.3552	22.0886
H	6.0453	12.5084	27.4684
H	9.2892	12.5066	22.3219
C	8.2812	6.6336	25.9568
C	11.5256	5.9035	20.8353
H	8.9306	6.2730	25.1647
H	5.6893	6.2667	30.3149
C	8.7252	7.6811	26.7792
C	11.9859	4.8676	21.6644
H	9.6975	8.1465	26.6374
C	8.7802	11.1358	26.7459
C	5.7871	1.4056	21.6198
H	7.7916	10.7090	26.5955
H	11.0585	1.8502	21.4721
C	10.7341	11.1381	28.0235
C	7.7459	1.3718	22.8890
C	6.7433	7.6265	28.0217
C	10.0086	4.9047	22.9054
C	6.2361	6.5758	27.2403
C	9.4853	5.9451	22.1179
H	11.5054	6.1770	27.4684
H	8.4959	6.3268	22.3493
C	7.0250	6.0646	26.2006
C	10.2611	6.4578	21.0690
C	11.1101	1.2438	25.3428
C	7.8478	11.2676	30.4702
C	6.5331	4.9402	25.3845
C	9.5293	7.5664	30.5054
F	1.2759	10.6126	26.4969
F	2.2378	1.8825	23.9349
F	-0.2819	8.1450	29.0413
F	6.9765	4.3173	21.4342
F	11.4654	10.6153	29.0733
F	8.4906	1.8825	23.9352
F	5.9711	8.1450	29.0413
F	9.2435	4.3879	23.9336
Ni	2.8985	21.9345	8.5928
Ni	6.1754	15.6292	3.4848
O	1.4483	16.8775	3.9336
O	4.4415	20.6759	9.0545
O	4.6368	14.3706	3.8754
O	1.3650	23.1978	9.0030
O	5.8060	16.9837	4.9625
O	2.5425	20.5562	10.0677
O	0.2512	14.2161	4.9428
O	3.2371	23.3281	10.0627
N	3.6968	23.1841	7.2415
N	0.7124	14.3876	2.1169
N	2.1721	20.6676	7.2520
N	5.4401	16.9181	2.1376
C	3.4856	24.6718	5.3629
C	0.4749	12.9129	0.2293
H	2.8645	25.0415	4.5525
H	5.8697	12.5572	9.6938
C	4.7608	12.6709	5.6147
C	1.7433	24.8933	0.4741
C	5.5035	24.6736	6.6821
C	2.4985	12.8786	1.5399
H	0.2476	25.0318	6.9200
H	3.4916	25.0300	1.7732
C	2.4836	19.1570	5.4082
C	5.7280	18.4269	0.2867
H	3.1329	18.7964	4.6160
H	-0.1083	18.7901	9.7662
C	2.9276	20.2045	6.2305
C	6.1883	17.3910	1.1161
H	3.8999	20.6699	6.0891
H	0.9158	16.9424	0.9765
C	2.9826	23.6592	6.1975
C	-0.0105	13.9290	1.0711
H	5.2609	14.3736	0.9235
C	4.9364	23.6615	7.4752
C	1.9483	13.8952	2.3407
H	5.4857	23.2332	8.3095
C	0.9457	20.1499	7.4730
C	4.2107	17.4281	2.3567
H	3.6361	17.0008	3.1754
C	0.4385	19.0992	6.6916
C	3.6876	18.4685	1.5695
H	5.7078	18.7004	6.9197
H	2.6983	18.8502	1.8007
C	1.2274	18.5880	5.6520
C	4.4635	18.9812	0.5203
C	5.3125	13.7672	4.7942
C	2.0502	23.7910	9.9216
C	0.7355	17.4636	4.8358
C	3.7317	20.0898	9.9570
Ni	9.1513	21.9345	8.5928
Ni	12.4282	15.6292	3.4848
O	7.7011	16.8775	3.9336
O	10.6943	20.6759	9.0545
O	10.8893	14.3706	3.8754
O	7.6178	23.1978	9.0030
O	12.0588	16.9837	4.9625
O	8.7953	20.5562	10.0677
O	6.5040	14.2161	4.9428
O	9.4899	23.3281	10.0627
N	9.9496	23.1841	7.2415
N	6.9652	14.3876	2.1169
N	8.4249	20.6676	7.2520
N	11.6929	16.9181	2.1376
C	9.7384	24.6718	5.3629
C	6.7277	12.9129	0.2293
H	9.1173	25.0415	4.5525
H	12.1225	12.5572	9.6938
C	11.0136	12.6709	5.6147
C	7.9961	24.8933	0.4741
C	11.7563	24.6736	6.6821
C	8.7513	12.8786	1.5399
H	6.5004	25.0318	6.9200
H	9.7444	25.0300	1.7732
C	8.7364	19.1570	5.4082
C	11.9808	18.4269	0.2867
H	9.3857	18.7964	4.6160
H	6.1445	18.7901	9.7662
C	9.1804	20.2045	6.2305
C	12.4411	17.3910	1.1161
H	10.1527	20.6699	6.0891
C	9.2354	23.6592	6.1975
C	6.2423	13.9290	1.0711
H	8.2468	23.2324	6.0471
H	11.5137	14.3736	0.9235
C	11.1892	23.6615	7.4752
C	8.2011	13.8952	2.3407
C	7.1985	20.1499	7.4730
C	10.4635	17.4281	2.3567
C	6.6913	19.0992	6.6916
C	9.9404	18.4685	1.5695
H	11.9606	18.7004	6.9197
H	8.9511	18.8502	1.8007
C	7.4802	18.5880	5.6520
C	10.7163	18.9812	0.5203
C	11.5653	13.7672	4.7942
C	8.3030	23.7910	9.9216
C	6.9883	17.4636	4.8358
C	9.9845	20.0898	9.9570
F	1.7311	23.1360	5.9482
F	2.6930	14.4059	3.3865
F	0.1735	20.6684	8.4926
F	7.4317	16.8407	0.8858
F	11.9206	23.1387	8.5247
F	8.9458	14.4059	3.3865
F	6.4263	20.6684	8.4926
F	9.6986	16.9113	3.3850
Ni	2.6709	21.9345	18.8670
Ni	5.9478	15.6292	13.7590
O	1.2207	16.8775	14.2081
O	4.2139	20.6759	19.3290
O	4.4089	14.3706	14.1495
O	1.1374	23.1978	19.2772
O	5.5784	16.9837	15.2367
O	2.3149	20.5562	20.3418
O	0.0236	14.2161	15.2169
O	3.0095	23.3281	20.3369
N	3.4692	23.1841	17.5160
N	0.4848	14.3876	12.3914
N	1.9446	20.6676	17.5262
N	5.2125	16.9181	12.4117
C	3.2580	24.6718	15.6374
C	0.2473	12.9129	10.5035
H	2.6369	25.0415	14.8270
H	5.6421	12.5572	19.9680
C	4.5332	12.6709	15.8892
C	1.5157	24.8933	10.7485
C	5.2759	24.6736	16.9563
C	2.2709	12.8786	11.8144
H	0.0200	25.0318	17.1942
H	3.2640	25.0300	12.0477
C	2.2560	19.1570	15.6824
C	5.5004	18.4269	10.5608
H	2.9054	18.7964	14.8902
H	-0.3359	18.7901	20.0404
C	2.7000	20.2045	16.5050
C	5.9607	17.3910	11.3903
H	3.6723	20.6699	16.3632
H	0.6882	16.9424	11.2506
C	2.7550	23.6592	16.4717
C	-0.2381	13.9290	11.3453
H	5.0333	14.3736	11.1979
C	4.7089	23.6615	17.7493
C	1.7207	13.8952	12.6149
H	5.2579	23.2332	18.5837
C	0.7181	20.1499	17.7472
C	3.9831	17.4281	12.6312
H	3.4085	17.0008	13.4495
C	0.2109	19.0992	16.9661
C	3.4601	18.4685	11.8437
H	5.4802	18.7004	17.1939
H	2.4707	18.8502	12.0748
C	0.9998	18.5880	15.9265
C	4.2359	18.9812	10.7945
C	5.0849	13.7672	15.0684
C	1.8226	23.7910	20.1957
C	0.5079	17.4636	15.1103
C	3.5041	20.0898	20.2312
Ni	8.9237	21.9345	18.8670
Ni	12.2006	15.6292	13.7590
O	7.4735	16.8775	14.2081
O	10.4667	20.6759	19.3290
O	10.6620	14.3706	14.1495
O	7.3902	23.1978	19.2772
O	11.8312	16.9837	15.2367
O	8.5677	20.5562	20.3418
O	6.2764	14.2161	15.2169
O	9.2623	23.3281	20.3369
N	9.7220	23.1841	17.5160
N	6.7376	14.3876	12.3914
N	8.1974	20.6676	17.5262
N	11.4656	16.9181	12.4117
C	9.5108	24.6718	15.6374
C	6.5001	12.9129	10.5035
H	8.8897	25.0415	14.8270
H	11.8949	12.5572	19.9680
C	10.7860	12.6709	15.8892
C	7.7685	24.8933	10.7485
C	11.5287	24.6736	16.9563
C	8.5237	12.8786	11.8144
H	6.2728	25.0318	17.1942
H	9.5168	25.0300	12.0477
C	8.5088	19.1570	15.6824
C	11.7532	18.4269	10.5608
H	9.1582	18.7964	14.8902
H	5.9169	18.7901	20.0404
C	8.9528	20.2045	16.5050
C	12.2135	17.3910	11.3903
H	9.9251	20.6699	16.3632
C	9.0078	23.6592	16.4717
C	6.0147	13.9290	11.3453
H	8.0192	23.2324	16.3213
H	11.2861	14.3736	11.1979
C	10.9617	23.6615	17.7493
C	7.9735	13.8952	12.6149
C	6.9709	20.1499	17.7472
C	10.2362	17.4281	12.6312
C	6.4637	19.0992	16.9661
C	9.7129	18.4685	11.8437
H	11.7330	18.7004	17.1939
H	8.7235	18.8502	12.0748
C	7.2526	18.5880	15.9265
C	10.4887	18.9812	10.7945
C	11.3377	13.7672	15.0684
C	8.0754	23.7910	20.1957
C	6.7607	17.4636	15.1103
C	9.7569	20.0898	20.2312
F	1.5035	23.1360	16.2224
F	2.4654	14.4059	13.6607
F	-0.0541	20.6684	18.7668
F	7.2041	16.8407	11.1600
F	11.6930	23.1387	18.7988
F	8.7182	14.4059	13.6607
F	6.1987	20.6684	18.7668
F	9.4710	16.9113	13.6594
Ni	2.4434	21.9345	29.1411
Ni	5.7202	15.6292	24.0335
O	0.9931	16.8775	24.4823
O	3.9863	20.6759	29.6032
O	4.1813	14.3706	24.4237
O	0.9098	23.1978	29.5514
O	5.3508	16.9837	25.5108
O	2.0873	20.5562	30.6160
O	-0.2040	14.2161	25.4914
O	2.7820	23.3281	30.6111
N	3.2416	23.1841	27.7902
N	0.2573	14.3876	22.6656
N	1.7170	20.6674	27.8007
N	4.9849	16.9181	22.6859
C	3.0304	24.6718	25.9115
C	0.0197	12.9129	20.7777
H	2.4093	25.0415	25.1012
H	5.4145	12.5572	30.2424
C	4.3056	12.6707	26.1633
C	1.2881	24.8933	21.0227
C	5.0483	24.6736	27.2307
C	2.0433	12.8786	22.0886
H	-0.2075	25.0318	27.4684
H	3.0364	25.0300	22.3219
C	2.0284	19.1570	25.9568
C	5.2728	18.4269	20.8353
H	2.6778	18.7964	25.1647
H	-0.5635	18.7901	30.3149
C	2.4724	20.2045	26.7792
C	5.7331	17.3910	21.6644
H	3.4447	20.6699	26.6374
H	0.4606	16.9424	21.5248
C	2.5274	23.6592	26.7459
C	-0.4657	13.9290	21.6198
H	4.8057	14.3736	21.4721
C	4.4813	23.6615	28.0235
C	1.4931	13.8952	22.8890
H	5.0305	23.2332	28.8579
C	0.4905	20.1499	28.0217
C	3.7555	17.4281	22.9054
H	3.1809	17.0008	23.7237
C	-0.0167	19.0992	27.2403
C	3.2325	18.4685	22.1179
H	5.2526	18.7004	27.4684
H	2.2431	18.8502	22.3493
C	0.7722	18.5880	26.2006
C	4.0083	18.9812	21.0690
C	4.8575	13.7672	25.3428
C	1.5950	23.7910	30.4702
C	0.2803	17.4636	25.3845
C	3.2765	20.0898	30.5054
Ni	8.6962	21.9345	29.1411
Ni	11.9730	15.6292	24.0335
O	7.2459	16.8775	24.4823
O	10.2391	20.6759	29.6032
O	10.4341	14.3706	24.4237
O	7.1626	23.1978	29.5514
O	11.6036	16.9837	25.5108
O	8.3401	20.5562	30.6160
O	6.0488	14.2161	25.4914
O	9.0348	23.3281	30.6111
N	9.4944	23.1841	27.7902
N	6.5101	14.3876	22.6656
N	7.9698	20.6674	27.8007
N	11.2377	16.9181	22.6859
C	9.2832	24.6718	25.9115
C	6.2725	12.9129	20.7777
H	8.6621	25.0415	25.1012
H	11.6673	12.5572	30.2424
C	10.5584	12.6707	26.1633
C	7.5409	24.8933	21.0227
C	11.3011	24.6736	27.2307
C	8.2961	12.8786	22.0886
H	6.0453	25.0318	27.4684
H	9.2892	25.0300	22.3219
C	8.2812	19.1570	25.9568
C	11.5256	18.4269	20.8353
H	8.9306	18.7964	25.1647
H	5.6893	18.7901	30.3149
C	8.7252	20.2045	26.7792
C	11.9859	17.3910	21.6644
H	9.6975	20.6699	26.6374
C	8.7802	23.6592	26.7459
C	5.7871	13.9290	21.6198
H	7.7916	23.2324	26.5955
H	11.0585	14.3736	21.4721
C	10.7341	23.6615	28.0235
C	7.7459	13.8952	22.8890
C	6.7433	20.1499	28.0217
C	10.0086	17.4281	22.9054
C	6.2361	19.0992	27.2403
C	9.4853	18.4685	22.1179
H	11.5054	18.7004	27.4684
H	8.4959	18.8502	22.3493
C	7.0250	18.5880	26.2006
C	10.2611	18.9812	21.0690
C	11.1101	13.7672	25.3428
C	7.8478	23.7910	30.4702
C	6.5331	17.4636	25.3845
C	9.5293	20.0898	30.5054
F	1.2759	23.1360	26.4969
F	2.2378	14.4059	23.9349
F	-0.2819	20.6684	29.0413
F	6.9765	16.8407	21.4342
F	11.4654	23.1387	29.0733
F	8.4906	14.4059	23.9352
F	5.9711	20.6684	29.0413
F	9.2435	16.9113	23.9336
Ni	15.4041	9.4111	8.5928
Ni	18.6810	3.1058	3.4848
O	13.9539	4.3541	3.9336
O	16.9471	8.1525	9.0545
O	17.1421	1.8472	3.8754
O	13.8706	10.6744	9.0030
O	18.3116	4.4603	4.9625
O	15.0481	8.0328	10.0677
O	12.7568	1.6927	4.9428
O	15.7427	10.8047	10.0627
N	16.2024	10.6607	7.2415
N	13.2180	1.8642	2.1169
N	14.6777	8.1440	7.2520
N	17.9457	4.3947	2.1376
C	15.9912	12.1482	5.3629
C	12.9805	0.3895	0.2293
H	15.3701	12.5181	4.5525
H	18.3753	0.0338	9.6938
C	17.2664	0.1475	5.6147
C	14.2489	12.3699	0.4741
C	18.0091	12.1502	6.6821
C	15.0041	0.3552	1.5399
H	12.7532	12.5084	6.9200
H	15.9972	12.5066	1.7732
C	14.9892	6.6336	5.4082
C	18.2336	5.9035	0.2867
H	15.6385	6.2730	4.6160
H	12.3973	6.2667	9.7662
C	15.4332	7.6811	6.2305
C	18.6939	4.8676	1.1161
H	16.4055	8.1465	6.0891
H	13.4214	4.4190	0.9765
C	15.4882	11.1358	6.1975
C	12.4951	1.4056	1.0711
H	17.7665	1.8502	0.9235
C	17.4420	11.1381	7.4752
C	14.4539	1.3718	2.3407
H	17.9913	10.7098	8.3095
C	13.4513	7.6265	7.4730
C	16.7163	4.9047	2.3567
H	16.1417	4.4774	3.1754
C	12.9441	6.5758	6.6916
C	16.1932	5.9451	1.5695
H	18.2134	6.1770	6.9197
H	15.2039	6.3268	1.8007
C	13.7330	6.0646	5.6520
C	16.9691	6.4578	0.5203
C	17.8181	1.2438	4.7942
C	14.5558	11.2676	9.9216
C	13.2411	4.9402	4.8358
C	16.2373	7.5664	9.9570
Ni	21.6569	9.4111	8.5928
Ni	24.9338	3.1058	3.4848
O	20.2067	4.3541	3.9336
O	23.1999	8.1525	9.0545
O	23.3949	1.8472	3.8754
O	20.1234	10.6744	9.0030
O	24.5644	4.4603	4.9625
O	21.3009	8.0328	10.0677
O	19.0096	1.6927	4.9428
O	21.9955	10.8047	10.0627
N	22.4552	10.6607	7.2415
N	19.4708	1.8642	2.1169
N	20.9305	8.1440	7.2520
N	24.1985	4.3947	2.1376
C	22.2440	12.1482	5.3629
C	19.2333	0.3895	0.2293
H	21.6229	12.5181	4.5525
H	24.6281	0.0338	9.6938
C	23.5192	0.1475	5.6147
C	20.5017	12.3699	0.4741
C	24.2619	12.1502	6.6821
C	21.2569	0.3552	1.5399
H	19.0060	12.5084	6.9200
H	22.2500	12.5066	1.7732
C	21.2420	6.6336	5.4082
C	24.4864	5.9035	0.2867
H	21.8913	6.2730	4.6160
H	18.6501	6.2667	9.7662
C	21.6860	7.6811	6.2305
C	24.9467	4.8676	1.1161
H	22.6583	8.1465	6.0891
C	21.7410	11.1358	6.1975
C	18.7479	1.4056	1.0711
H	20.7524	10.7090	6.0471
H	24.0193	1.8502	0.9235
C	23.6948	11.1381	7.4752
C	20.7067	1.3718	2.3407
C	19.7041	7.6265	7.4730
C	22.9691	4.9047	2.3567
C	19.1969	6.5758	6.6916
C	22.4460	5.9451	1.5695
H	24.4662	6.1770	6.9197
H	21.4567	6.3268	1.8007
C	19.9858	6.0646	5.6520
C	23.2219	6.4578	0.5203
C	24.0709	1.2438	4.7942
C	20.8086	11.2676	9.9216
C	19.4939	4.9402	4.8358
C	22.4901	7.5664	9.9570
F	14.2367	10.6126	5.9482
F	15.1986	1.8825	3.3865
F	12.6789	8.1450	8.4926
F	19.9373	4.3173	0.8858
F	24.4262	10.6153	8.5247
F	21.4514	1.8825	3.3865
F	18.9319	8.1450	8.4926
F	22.2042	4.3879	3.3850
Ni	15.1765	9.4111	18.8670
Ni	18.4534	3.1058	13.7590
O	13.7263	4.3541	14.2081
O	16.7195	8.1525	19.3290
O	16.9145	1.8472	14.1495
O	13.6430	10.6744	19.2772
O	18.0840	4.4603	15.2367
O	14.8205	8.0328	20.3418
O	12.5292	1.6927	15.2169
O	15.5151	10.8047	20.3369
N	15.9748	10.6607	17.5160
N	12.9904	1.8642	12.3914
N	14.4502	8.1440	17.5262
N	17.7181	4.3947	12.4117
C	15.7636	12.1482	15.6374
C	12.7529	0.3895	10.5035
H	15.1425	12.5181	14.8270
H	18.1477	0.0338	19.9680
C	17.0388	0.1473	15.8892
C	14.0213	12.3699	10.7485
C	17.7815	12.1502	16.9563
C	14.7765	0.3552	11.8144
H	12.5256	12.5084	17.1942
H	15.7696	12.5066	12.0477
C	14.7616	6.6336	15.6824
C	18.0060	5.9035	10.5608
H	15.4110	6.2730	14.8902
H	12.1697	6.2667	20.0404
C	15.2056	7.6811	16.5050
C	18.4663	4.8676	11.3903
H	16.1779	8.1465	16.3632
H	13.1938	4.4190	11.2506
C	15.2606	11.1358	16.4717
C	12.2675	1.4056	11.3453
H	17.5389	1.8502	11.1979
C	17.2145	11.1381	17.7493
C	14.2263	1.3718	12.6149
H	17.7637	10.7098	18.5837
C	13.2237	7.6265	17.7472
C	16.4887	4.9047	12.6312
H	15.9141	4.4774	13.4495
C	12.7165	6.5758	16.9661
C	15.9657	5.9451	11.8437
H	17.9858	6.1770	17.1939
H	14.9763	6.3268	12.0748
C	13.5054	6.0646	15.9265
C	16.7415	6.4578	10.7945
C	17.5905	1.2438	15.0684
C	14.3282	11.2676	20.1957
C	13.0135	4.9402	15.1103
C	16.0097	7.5664	20.2312
Ni	21.4293	9.4111	18.8670
Ni	24.7062	3.1058	13.7590
O	19.9791	4.3541	14.2081
O	22.9723	8.1525	19.3290
O	23.1673	1.8472	14.1495
O	19.8958	10.6744	19.2772
O	24.3368	4.4603	15.2367
O	21.0733	8.0328	20.3418
O	18.7820	1.6927	15.2169
O	21.7679	10.8047	20.3369
N	22.2276	10.6607	17.5160
N	19.2432	1.8642	12.3914
N	20.7030	8.1440	17.5262
N	23.9709	4.3947	12.4117
C	22.0164	12.1482	15.6374
C	19.0057	0.3895	10.5035
H	21.3953	12.5181	14.8270
H	24.4005	0.0338	19.9680
C	23.2916	0.1473	15.8892
C	20.2741	12.3699	10.7485
C	24.0343	12.1502	16.9563
C	21.0293	0.3552	11.8144
H	18.7784	12.5084	17.1942
H	22.0224	12.5066	12.0477
C	21.0144	6.6336	15.6824
C	24.2588	5.9035	10.5608
H	21.6638	6.2730	14.8902
H	18.4225	6.2667	20.0404
C	21.4584	7.6811	16.5050
C	24.7191	4.8676	11.3903
H	22.4307	8.1465	16.3632
C	21.5134	11.1358	16.4717
C	18.5203	1.4056	11.3453
H	20.5248	10.7090	16.3213
H	23.7917	1.8502	11.1979
C	23.4673	11.1381	17.7493
C	20.4791	1.3718	12.6149
C	19.4765	7.6265	17.7472
C	22.7415	4.9047	12.6312
C	18.9693	6.5758	16.9661
C	22.2185	5.9451	11.8437
H	24.2386	6.1770	17.1939
H	21.2291	6.3268	12.0748
C	19.7582	6.0646	15.9265
C	22.9943	6.4578	10.7945
C	23.8433	1.2438	15.0684
C	20.5810	11.2676	20.1957
C	19.2663	4.9402	15.1103
C	22.2625	7.5664	20.2312
F	14.0091	10.6126	16.2224
F	14.9710	1.8825	13.6607
F	12.4513	8.1450	18.7668
F	19.7097	4.3173	11.1600
F	24.1986	10.6153	18.7988
F	21.2238	1.8825	13.6607
F	18.7043	8.1450	18.7668
F	21.9766	4.3879	13.6594
Ni	14.9490	9.4111	29.1411
Ni	18.2258	3.1058	24.0335
O	13.4987	4.3541	24.4823
O	16.4919	8.1525	29.6032
O	16.6869	1.8472	24.4237
O	13.4154	10.6744	29.5514
O	17.8564	4.4603	25.5108
O	14.5929	8.0328	30.6160
O	12.3016	1.6927	25.4914
O	15.2876	10.8047	30.6111
N	15.7472	10.6607	27.7902
N	12.7629	1.8642	22.6656
N	14.2226	8.1442	27.8007
N	17.4905	4.3947	22.6859
C	15.5360	12.1484	25.9115
C	12.5253	0.3895	20.7777
H	14.9149	12.5181	25.1012
H	17.9201	0.0338	30.2424
C	16.8112	0.1475	26.1633
C	13.7937	12.3699	21.0227
C	17.5539	12.1502	27.2307
C	14.5489	0.3552	22.0886
H	12.2981	12.5084	27.4684
H	15.5420	12.5066	22.3219
C	14.5340	6.6336	25.9568
C	17.7784	5.9035	20.8353
H	15.1834	6.2730	25.1647
H	11.9421	6.2667	30.3149
C	14.9780	7.6811	26.7792
C	18.2387	4.8676	21.6644
H	15.9503	8.1465	26.6374
H	12.9662	4.4190	21.5248
C	15.0330	11.1358	26.7459
C	12.0399	1.4056	21.6198
H	17.3113	1.8502	21.4721
C	16.9869	11.1381	28.0235
C	13.9987	1.3718	22.8890
H	17.5361	10.7098	28.8579
C	12.9961	7.6265	28.0217
C	16.2611	4.9047	22.9054
H	15.6865	4.4774	23.7237
C	12.4889	6.5758	27.2403
C	15.7381	5.9451	22.1179
H	17.7582	6.1770	27.4684
H	14.7487	6.3268	22.3493
C	13.2778	6.0646	26.2006
C	16.5139	6.4578	21.0690
C	17.3631	1.2438	25.3428
C	14.1006	11.2676	30.4702
C	12.7859	4.9402	25.3845
C	15.7821	7.5664	30.5054
Ni	21.2018	9.4111	29.1411
Ni	24.4786	3.1058	24.0335
O	19.7515	4.3541	24.4823
O	22.7447	8.1525	29.6032
O	22.9397	1.8472	24.4237
O	19.6682	10.6744	29.5514
O	24.1092	4.4603	25.5108
O	20.8457	8.0328	30.6160
O	18.5544	1.6927	25.4914
O	21.5404	10.8047	30.6111
N	22.0000	10.6607	27.7902
N	19.0157	1.8642	22.6656
N	20.4754	8.1442	27.8007
N	23.7436	4.3947	22.6859
C	21.7888	12.1484	25.9115
C	18.7781	0.3895	20.7777
H	21.1677	12.5181	25.1012
H	24.1729	0.0338	30.2424
C	23.0640	0.1475	26.1633
C	20.0465	12.3699	21.0227
C	23.8067	12.1502	27.2307
C	20.8017	0.3552	22.0886
H	18.5509	12.5084	27.4684
H	21.7948	12.5066	22.3219
C	20.7868	6.6336	25.9568
C	24.0312	5.9035	20.8353
H	21.4362	6.2730	25.1647
H	18.1949	6.2667	30.3149
C	21.2308	7.6811	26.7792
C	24.4915	4.8676	21.6644
H	22.2031	8.1465	26.6374
C	21.2858	11.1358	26.7459
C	18.2927	1.4056	21.6198
H	20.2972	10.7090	26.5955
H	23.5641	1.8502	21.4721
C	23.2397	11.1381	28.0235
C	20.2515	1.3718	22.8890
C	19.2489	7.6265	28.0217
C	22.5139	4.9047	22.9054
C	18.7417	6.5758	27.2403
C	21.9909	5.9451	22.1179
H	24.0110	6.1770	27.4684
H	21.0015	6.3268	22.3493
C	19.5306	6.0646	26.2006
C	22.7667	6.4578	21.0690
C	23.6157	1.2438	25.3428
C	20.3534	11.2676	30.4702
C	19.0387	4.9402	25.3845
C	22.0349	7.5664	30.5054
F	13.7815	10.6126	26.4969
F	14.7434	1.8825	23.9349
F	12.2237	8.1450	29.0413
F	19.4821	4.3173	21.4342
F	23.9710	10.6153	29.0733
F	20.9962	1.8825	23.9352
F	18.4767	8.1450	29.0413
F	21.7491	4.3879	23.9336
Ni	15.4041	21.9345	8.5928
Ni	18.6810	15.6292	3.4848
O	13.9539	16.8775	3.9336
O	16.9471	20.6759	9.0545
O	17.1421	14.3706	3.8754
O	13.8706	23.1978	9.0030
O	18.3116	16.9837	4.9625
O	15.0481	20.5562	10.0677
O	12.7568	14.2161	4.9428
O	15.7427	23.3281	10.0627
N	16.2024	23.1841	7.2415
N	13.2180	14.3876	2.1169
N	14.6777	20.6676	7.2520
N	17.9457	16.9181	2.1376
C	15.9912	24.6718	5.3629
C	12.9805	12.9129	0.2293
H	15.3701	25.0415	4.5525
H	18.3753	12.5572	9.6938
C	17.2664	12.6709	5.6147
C	14.2489	24.8933	0.4741
C	18.0091	24.6736	6.6821
C	15.0041	12.8786	1.5399
H	12.7532	25.0318	6.9200
H	15.9972	25.0300	1.7732
C	14.9892	19.1570	5.4082
C	18.2336	18.4269	0.2867
H	15.6385	18.7964	4.6160
H	12.3973	18.7901	9.7662
C	15.4332	20.2045	6.2305
C	18.6939	17.3910	1.1161
H	16.4055	20.6699	6.0891
H	13.4214	16.9424	0.9765
C	15.4882	23.6592	6.1975
C	12.4951	13.9290	1.0711
H	17.7665	14.3736	0.9235
C	17.4420	23.6615	7.4752
C	14.4539	13.8952	2.3407
H	17.9913	23.2332	8.3095
C	13.4513	20.1499	7.4730
C	16.7163	17.4281	2.3567
H	16.1417	17.0008	3.1754
C	12.9441	19.0992	6.6916
C	16.1932	18.4685	1.5695
H	18.2134	18.7004	6.9197
H	15.2039	18.8502	1.8007
C	13.7330	18.5880	5.6520
C	16.9691	18.9812	0.5203
C	17.8181	13.7672	4.7942
C	14.5558	23.7910	9.9216
C	13.2411	17.4636	4.8358
C	16.2373	20.0898	9.9570
Ni	21.6569	21.9345	8.5928
Ni	24.9338	15.6292	3.4848
O	20.2067	16.8775	3.9336
O	23.1999	20.6759	9.0545
O	23.3949	14.3706	3.8754
O	20.1234	23.1978	9.0030
O	24.5644	16.9837	4.9625
O	21.3009	20.5562	10.0677
O	19.0096	14.2161	4.9428
O	21.9955	23.3281	10.0627
N	22.4552	23.1841	7.2415
N	19.4708	14.3876	2.1169
N	20.9305	20.6676	7.2520
N	24.1985	16.9181	2.1376
C	22.2440	24.6718	5.3629
C	19.2333	12.9129	0.2293
H	21.6229	25.0415	4.5525
H	24.6281	12.5572	9.6938
C	23.5192	12.6709	5.6147
C	20.5017	24.8933	0.4741
C	24.2619	24.6736	6.6821
C	21.2569	12.8786	1.5399
H	19.0060	25.0318	6.9200
H	22.2500	25.0300	1.7732
C	21.2420	19.1570	5.4082
C	24.4864	18.4269	0.2867
H	21.8913	18.7964	4.6160
H	18.6501	18.7901	9.7662
C	21.6860	20.2045	6.2305
C	24.9467	17.3910	1.1161
H	22.6583	20.6699	6.0891
C	21.7410	23.6592	6.1975
C	18.7479	13.9290	1.0711
H	20.7524	23.2324	6.0471
H	24.0193	14.3736	0.9235
C	23.6948	23.6615	7.4752
C	20.7067	13.8952	2.3407
C	19.7041	20.1499	7.4730
C	22.9691	17.4281	2.3567
C	19.1969	19.0992	6.6916
C	22.4460	18.4685	1.5695
H	24.4662	18.7004	6.9197
H	21.4567	18.8502	1.8007
C	19.9858	18.5880	5.6520
C	23.2219	18.9812	0.5203
C	24.0709	13.7672	4.7942
C	20.8086	23.7910	9.9216
C	19.4939	17.4636	4.8358
C	22.4901	20.0898	9.9570
F	14.2367	23.1360	5.9482
F	15.1986	14.4059	3.3865
F	12.6789	20.6684	8.4926
F	19.9373	16.8407	0.8858
F	24.4262	23.1387	8.5247
F	21.4514	14.4059	3.3865
F	18.9319	20.6684	8.4926
F	22.2042	16.9113	3.3850
Ni	15.1765	21.9345	18.8670
Ni	18.4534	15.6292	13.7590
O	13.7263	16.8775	14.2081
O	16.7195	20.6759	19.3290
O	16.9145	14.3706	14.1495
O	13.6430	23.1978	19.2772
O	18.0840	16.9837	15.2367
O	14.8205	20.5562	20.3418
O	12.5292	14.2161	15.2169
O	15.5151	23.3281	20.3369
N	15.9748	23.1841	17.5160
N	12.9904	14.3876	12.3914
N	14.4502	20.6676	17.5262
N	17.7181	16.9181	12.4117
C	15.7636	24.6718	15.6374
C	12.7529	12.9129	10.5035
H	15.1425	25.0415	14.8270
H	18.1477	12.5572	19.9680
C	17.0388	12.6709	15.8892
C	14.0213	24.8933	10.7485
C	17.7815	24.6736	16.9563
C	14.7765	12.8786	11.8144
H	12.5256	25.0318	17.1942
H	15.7696	25.0300	12.0477
C	14.7616	19.1570	15.6824
C	18.0060	18.4269	10.5608
H	15.4110	18.7964	14.8902
H	12.1697	18.7901	20.0404
C	15.2056	20.2045	16.5050
C	18.4663	17.3910	11.3903
H	16.1779	20.6699	16.3632
H	13.1938	16.9424	11.2506
C	15.2606	23.6592	16.4717
C	12.2675	13.9290	11.3453
H	17.5389	14.3736	11.1979
C	17.2145	23.6615	17.7493
C	14.2263	13.8952	12.6149
H	17.7637	23.2332	18.5837
C	13.2237	20.1499	17.7472
C	16.4887	17.4281	12.6312
H	15.9141	17.0008	13.4495
C	12.7165	19.0992	16.9661
C	15.9657	18.4685	11.8437
H	17.9858	18.7004	17.1939
H	14.9763	18.8502	12.0748
C	13.5054	18.5880	15.9265
C	16.7415	18.9812	10.7945
C	17.5905	13.7672	15.0684
C	14.3282	23.7910	20.1957
C	13.0135	17.4636	15.1103
C	16.0097	20.0898	20.2312
Ni	21.4293	21.9345	18.8670
Ni	24.7062	15.6292	13.7590
O	19.9791	16.8775	14.2081
O	22.9723	20.6759	19.3290
O	23.1673	14.3706	14.1495
O	19.8958	23.1978	19.2772
O	24.3368	16.9837	15.2367
O	21.0733	20.5562	20.3418
O	18.7820	14.2161	15.2169
O	21.7679	23.3281	20.3369
N	22.2276	23.1841	17.5160
N	19.2432	14.3876	12.3914
N	20.7030	20.6676	17.5262
N	23.9709	16.9181	12.4117
C	22.0164	24.6718	15.6374
C	19.0057	12.9129	10.5035
H	21.3953	25.0415	14.8270
H	24.4005	12.5572	19.9680
C	23.2916	12.6709	15.8892
C	20.2741	24.8933	10.7485
C	24.0343	24.6736	16.9563
C	21.0293	12.8786	11.8144
H	18.7784	25.0318	17.1942
H	22.0224	25.0300	12.0477
C	21.0144	19.1570	15.6824
C	24.2588	18.4269	10.5608
H	21.6638	18.7964	14.8902
H	18.4225	18.7901	20.0404
C	21.4584	20.2045	16.5050
C	24.7191	17.3910	11.3903
H	22.4307	20.6699	16.3632
C	21.5134	23.6592	16.4717
C	18.5203	13.9290	11.3453
H	20.5248	23.2324	16.3213
H	23.7917	14.3736	11.1979
C	23.4673	23.6615	17.7493
C	20.4791	13.8952	12.6149
C	19.4765	20.1499	17.7472
C	22.7415	17.4281	12.6312
C	18.9693	19.0992	16.9661
C	22.2185	18.4685	11.8437
H	24.2386	18.7004	17.1939
H	21.2291	18.8502	12.0748
C	19.7582	18.5880	15.9265
C	22.9943	18.9812	10.7945
C	23.8433	13.7672	15.0684
C	20.5810	23.7910	20.1957
C	19.2663	17.4636	15.1103
C	22.2625	20.0898	20.2312
F	14.0091	23.1360	16.2224
F	14.9710	14.4059	13.6607
F	12.4513	20.6684	18.7668
F	19.7097	16.8407	11.1600
F	24.1986	23.1387	18.7988
F	21.2238	14.4059	13.6607
F	18.7043	20.6684	18.7668
F	21.9766	16.9113	13.6594
Ni	14.9490	21.9345	29.1411
Ni	18.2258	15.6292	24.0335
O	13.4987	16.8775	24.4823
O	16.4919	20.6759	29.6032
O	16.6869	14.3706	24.4237
O	13.4154	23.1978	29.5514
O	17.8564	16.9837	25.5108
O	14.5929	20.5562	30.6160
O	12.3016	14.2161	25.4914
O	15.2876	23.3281	30.6111
N	15.7472	23.1841	27.7902
N	12.7629	14.3876	22.6656
N	14.2226	20.6674	27.8007
N	17.4905	16.9181	22.6859
C	15.5360	24.6718	25.9115
C	12.5253	12.9129	20.7777
H	14.9149	25.0415	25.1012
H	17.9201	12.5572	30.2424
C	16.8112	12.6707	26.1633
C	13.7937	24.8933	21.0227
C	17.5539	24.6736	27.2307
C	14.5489	12.8786	22.0886
H	12.2981	25.0318	27.4684
H	15.5420	25.0300	22.3219
C	14.5340	19.1570	25.9568
C	17.7784	18.4269	20.8353
H	15.1834	18.7964	25.1647
H	11.9421	18.7901	30.3149
C	14.9780	20.2045	26.7792
C	18.2387	17.3910	21.6644
H	15.9503	20.6699	26.6374
H	12.9662	16.9424	21.5248
C	15.0330	23.6592	26.7459
C	12.0399	13.9290	21.6198
H	17.3113	14.3736	21.4721
C	16.9869	23.6615	28.0235
C	13.9987	13.8952	22.8890
H	17.5359	23.2332	28.8579
C	12.9961	20.1499	28.0217
C	16.2611	17.4281	22.9054
H	15.6865	17.0008	23.7237
C	12.4889	19.0992	27.2403
C	15.7381	18.4685	22.1179
H	17.7582	18.7004	27.4684
H	14.7487	18.8502	22.3493
C	13.2778	18.5880	26.2006
C	16.5139	18.9812	21.0690
C	17.3631	13.7672	25.3428
C	14.1006	23.7910	30.4702
C	12.7859	17.4636	25.3845
C	15.7821	20.0898	30.5054
Ni	21.2018	21.9345	29.1411
Ni	24.4786	15.6292	24.0335
O	19.7515	16.8775	24.4823
O	22.7447	20.6759	29.6032
O	22.9397	14.3706	24.4237
O	19.6682	23.1978	29.5514
O	24.1092	16.9837	25.5108
O	20.8457	20.5562	30.6160
O	18.5544	14.2161	25.4914
O	21.5404	23.3281	30.6111
N	22.0000	23.1841	27.7902
N	19.0157	14.3876	22.6656
N	20.4754	20.6674	27.8007
N	23.7436	16.9181	22.6859
C	21.7888	24.6718	25.9115
C	18.7781	12.9129	20.7777
H	21.1677	25.0415	25.1012
H	24.1729	12.5572	30.2424
C	23.0640	12.6707	26.1633
C	20.0465	24.8933	21.0227
C	23.8067	24.6736	27.2307
C	20.8017	12.8786	22.0886
H	18.5509	25.0318	27.4684
H	21.7948	25.0300	22.3219
C	20.7868	19.1570	25.9568
C	24.0312	18.4269	20.8353
H	21.4362	18.7964	25.1647
H	18.1949	18.7901	30.3149
C	21.2308	20.2045	26.7792
C	24.4915	17.3910	21.6644
H	22.2031	20.6699	26.6374
C	21.2858	23.6592	26.7459
C	18.2927	13.9290	21.6198
H	20.2972	23.2324	26.5955
H	23.5641	14.3736	21.4721
C	23.2397	23.6615	28.0235
C	20.2515	13.8952	22.8890
C	19.2489	20.1499	28.0217
C	22.5139	17.4281	22.9054
C	18.7417	19.0992	27.2403
C	21.9909	18.4685	22.1179
H	24.0110	18.7004	27.4684
H	21.0015	18.8502	22.3493
C	19.5306	18.5880	26.2006
C	22.7667	18.9812	21.0690
C	23.6157	13.7672	25.3428
C	20.3534	23.7910	30.4702
C	19.0387	17.4636	25.3845
C	22.0349	20.0898	30.5054
F	13.7815	23.1360	26.4969
F	14.7434	14.4059	23.9349
F	12.2237	20.6684	29.0413
F	19.4821	16.8407	21.4342
F	23.9710	23.1387	29.0733
F	20.9962	14.4059	23.9352
F	18.4767	20.6684	29.0413
F	21.7491	16.9113	23.9336
