116

C	3.5154	12.1382	5.3593
C	0.4819	0.3421	0.2309
C	4.7585	0.1831	5.6349
C	1.7309	12.3121	0.4988
C	5.5192	12.1946	6.7179
C	2.4864	0.2806	1.5954
C	2.4518	6.6629	5.3580
C	5.8093	5.9716	0.3745
C	2.8768	7.7125	6.2112
C	6.2136	4.8425	1.1159
C	3.0529	11.0729	6.1409
C	0.0122	1.3946	1.0231
C	4.9718	11.1248	7.4776
C	1.9338	1.3382	2.3655
C	0.8862	7.5546	7.5469
C	4.1451	4.7899	2.2252
C	0.3847	6.4766	6.6038
C	3.6829	5.9053	1.5181
C	1.2120	6.0557	5.5593
C	4.5203	6.5290	0.5939
C	5.2769	1.2853	4.8211
C	2.0435	11.2496	9.9289
C	0.7581	4.9471	4.7160
C	3.8394	7.6938	10.1016
C	9.7680	12.1383	5.3590
C	6.7345	0.3422	0.2308
C	11.0112	0.1830	5.6349
C	7.9836	12.3121	0.4987
C	11.7720	12.1946	6.7179
C	8.7391	0.2806	1.5953
C	8.7046	6.6629	5.3579
C	12.0621	5.9718	0.3746
C	9.1296	7.7125	6.2111
C	12.4665	4.8426	1.1159
C	9.3055	11.0728	6.1410
C	6.2652	1.3945	1.0229
C	11.2246	11.1247	7.4776
C	8.1865	1.3382	2.3654
C	7.1389	7.5545	7.5468
C	10.3980	4.7899	2.2253
C	6.6375	6.4765	6.6036
C	9.9357	5.9053	1.5181
C	7.4648	6.0556	5.5591
C	10.7730	6.5291	0.5939
C	11.5297	1.2852	4.8211
C	8.2962	11.2496	9.9286
C	7.0110	4.9471	4.7157
C	10.0921	7.6937	10.1015
C	6.7555	0.2095	7.1147
C	3.7208	12.2574	1.9897
C	11.6636	5.9118	6.9443
C	6.4375	6.5076	9.6949
C	0.5028	0.2096	7.1147
C	9.9735	12.2573	1.9895
C	5.4110	5.9117	6.9441
C	0.1848	6.5077	9.6951
H	2.8929	12.5124	4.5742
H	5.8911	-0.0302	9.7140
H	3.1094	6.3233	4.5801
H	3.8263	8.1896	6.0397
H	0.9391	4.4100	0.9912
H	2.1034	10.6073	5.9539
H	5.3161	1.8596	0.8372
H	5.4994	10.7210	8.3194
H	2.4589	1.7445	3.2076
H	0.1542	8.3581	7.6497
H	3.5535	4.3002	2.9717
H	2.6940	6.2812	1.7057
H	9.1456	12.5124	4.5741
H	12.1440	-0.0304	9.7142
H	9.3623	6.3235	4.5801
H	10.0791	8.1897	6.0397
H	7.1918	4.4099	0.9909
H	8.3564	10.6073	5.9539
H	11.5689	1.8596	0.8372
H	11.7523	10.7209	8.3193
H	8.7116	1.7443	3.2075
H	6.4070	8.3582	7.6494
H	9.8064	4.3003	2.9719
H	8.9468	6.2812	1.7057
N	3.7699	10.5998	7.1867
N	0.7299	1.8584	2.0734
N	2.1858	8.1319	7.2480
N	5.3948	4.2967	2.0263
N	10.0229	10.5998	7.1866
N	6.9825	1.8584	2.0733
N	8.4385	8.1317	7.2478
N	11.6477	4.2968	2.0263
N	7.7765	0.6046	7.5246
N	4.7348	11.8430	2.3975
N	10.6581	5.5451	7.4201
N	7.1756	6.9438	8.9091
N	1.5237	0.6045	7.5247
N	10.9876	11.8429	2.3975
N	4.4054	5.5450	7.4201
N	0.9227	6.9438	8.9092
Ni	2.9126	9.4195	8.5856
Ni	6.1457	3.0882	3.4138
Ni	9.1660	9.4190	8.5856
Ni	12.3984	3.0879	3.4140
O	1.5110	4.3547	3.8590
O	4.5336	8.2037	9.1403
O	4.5451	1.9213	3.9679
O	1.3138	10.5761	9.0967
O	5.8004	4.5103	4.8112
O	2.6994	8.2387	10.3209
O	0.2458	1.6770	4.8956
O	3.2829	10.9273	9.9694
O	7.7640	4.3548	3.8587
O	10.7863	8.2040	9.1402
O	10.7980	1.9211	3.9678
O	7.5666	10.5763	9.0966
O	12.0532	4.5105	4.8113
O	8.9520	8.2386	10.3207
O	6.4986	1.6770	4.8955
O	9.5356	10.9273	9.9694
