124

C	3.3348	12.3200	5.4824
C	0.6686	0.2684	0.0546
C	4.5944	0.3723	5.6988
C	1.9479	12.3316	0.3101
C	5.4613	12.3161	6.6173
C	2.6798	0.3422	1.3721
C	2.1259	6.2886	5.7174
C	5.6705	5.8963	0.2517
C	2.7747	7.3859	6.3331
C	5.9862	4.8238	1.0898
C	2.9721	11.1883	6.2262
C	0.1220	1.2689	0.8938
C	5.0447	11.1463	7.3047
C	2.0782	1.3297	2.1585
C	0.8993	7.8083	7.6482
C	3.8793	4.8988	2.1037
C	0.2043	6.7302	7.0863
C	3.4978	5.9947	1.2992
C	0.8281	5.9783	6.0889
C	4.4124	6.4933	0.3840
C	5.0270	1.5435	4.9341
C	2.2625	11.2507	9.7726
C	0.1171	4.8696	5.4055
C	3.7856	7.6348	9.8490
C	10.0727	12.0588	5.2992
C	6.8462	0.4223	0.3510
C	11.3427	0.0244	5.5771
C	8.1642	12.5798	0.6559
C	12.0252	12.0369	6.6893
C	8.7523	0.5758	1.8000
C	8.4482	6.7494	5.2821
C	12.1747	5.9918	0.3365
C	9.1022	7.6519	6.1551
C	12.5948	4.9134	1.1292
C	9.4738	11.1285	6.1805
C	6.1920	1.3537	1.1779
C	11.3955	11.0727	7.4903
C	8.0184	1.4766	2.6140
C	7.3346	7.5454	7.6630
C	10.5826	4.9004	2.3051
C	6.6687	6.5948	6.8805
C	10.0513	5.9159	1.4655
C	7.2247	6.2124	5.6519
C	10.8785	6.4979	0.5116
C	11.9127	1.0877	4.7373
C	8.7714	11.6693	10.0910
C	6.5509	5.2148	4.7965
C	10.1626	7.6363	9.9984
H	2.6223	12.7490	4.7877
H	6.0814	0.0207	9.7721
H	0.5163	12.3721	6.9559
H	3.6754	12.5110	1.6185
H	2.6948	5.7107	4.9944
H	0.1223	6.4137	9.8772
H	1.0659	4.4546	0.9799
H	1.9865	10.7380	6.1286
H	5.1843	1.6962	0.9483
H	2.6016	1.7145	3.0273
H	0.4519	8.4028	8.4374
H	5.7388	6.1707	7.2453
H	2.5071	6.4321	1.4152
H	9.4969	12.3671	4.4306
H	12.3306	-0.1235	9.5262
H	6.4508	12.7259	6.8164
H	9.7551	12.8178	2.1156
H	8.9515	6.4872	4.3540
H	6.1780	6.2582	9.8143
H	6.9625	4.3433	1.0570
H	11.9077	10.6484	8.3487
H	6.9142	7.8807	8.6073
H	11.7162	6.4970	7.4483
H	9.0355	6.2709	1.6398
H	5.4917	9.6829	8.6425
H	6.7647	10.8716	8.4721
H	10.9343	2.3132	1.3301
H	10.7875	1.0170	0.1284
H	4.5479	8.3871	6.4854
H	4.5318	6.9975	5.3981
H	3.3379	3.6172	3.6078
H	2.1263	4.8008	3.1927
H	7.7548	10.0584	6.5699
H	7.6935	11.1257	5.1789
H	8.0064	2.5128	4.3655
H	9.5857	1.7847	3.8943
H	10.8719	8.6237	6.5203
H	10.8135	7.6682	5.0570
H	10.3852	3.9752	4.1138
H	8.8797	4.6624	3.4916
N	3.7846	10.6124	7.1232
N	0.8465	1.8065	1.9313
N	2.1456	8.1449	7.2863
N	5.1327	4.3391	2.0049
N	10.1458	10.6256	7.2684
N	6.7488	1.8832	2.2767
N	8.5139	8.0953	7.3172
N	11.8449	4.3776	2.1084
N	5.8584	10.4969	8.1306
N	11.3749	1.6657	0.6796
N	4.0248	7.6790	5.9725
N	3.0377	4.3825	2.9907
N	8.2158	10.7320	5.9580
N	8.5638	1.9414	3.7300
N	10.3280	8.0851	5.8474
N	9.8863	4.4399	3.3417
Ni	3.0125	9.4129	8.4997
Ni	5.8366	3.2195	3.4201
Ni	9.3508	9.3939	8.5952
Ni	12.6129	2.9621	3.3275
O	0.8023	4.3006	4.4471
O	4.5387	8.1528	8.9336
O	4.3064	2.0666	3.9936
O	1.5396	10.6491	8.8882
O	5.3206	4.9547	4.8888
O	2.6305	8.1689	9.9872
O	0.5944	1.5175	4.8112
O	3.4603	10.8175	9.8887
O	7.2446	4.5455	3.9187
O	10.8796	8.2245	9.0957
O	11.1661	1.6888	3.8475
O	8.1885	10.7796	9.3390
O	11.4595	4.5325	5.6914
O	8.9884	8.1321	10.1407
O	6.1732	2.0892	5.0940
O	10.0153	11.7697	10.1411
