124

C	3.9061	11.5022	5.1013
C	0.3632	0.8845	0.3424
C	4.9007	-0.1514	5.5911
C	1.6627	12.9012	0.5170
C	5.3653	-0.3179	6.8957
C	2.4659	0.9495	1.5122
C	2.1182	6.7296	5.6031
C	5.7158	5.7021	0.6722
C	2.6482	7.7284	6.4011
C	6.1484	4.6436	1.4480
C	3.2690	10.6438	6.0167
C	12.3451	1.8415	1.2074
C	4.7361	11.2754	7.7201
C	1.8652	1.8791	2.3778
C	1.0677	7.3146	8.0697
C	4.0698	4.5908	2.5306
C	0.5063	6.2498	7.3506
C	3.5782	5.6607	1.7715
C	1.0544	5.9651	6.0818
C	4.4309	6.2389	0.8289
C	5.3914	0.9363	4.7592
C	1.7217	11.7826	9.9095
C	0.5561	4.9161	5.2139
C	3.9919	7.3567	10.1967
C	9.3851	0.1457	5.6393
C	6.5161	0.3869	10.3053
C	10.7597	0.3393	5.4813
C	7.9214	12.2108	0.2884
C	11.6645	11.9381	6.0570
C	8.6523	12.4882	1.4646
C	9.1560	6.3668	5.3953
C	11.9495	6.9984	1.4123
C	9.4946	7.4821	6.1688
C	-0.1947	5.9658	2.3019
C	8.9455	11.5722	6.3749
C	6.3250	1.3573	0.9319
C	11.1437	10.8568	6.7801
C	8.1830	0.9872	2.3118
C	7.3070	7.7462	6.9935
C	10.4511	4.6859	1.7508
C	6.9185	6.6038	6.2933
C	10.0151	5.6604	0.8522
C	7.8461	5.8940	5.4974
C	10.7727	6.8163	0.6478
C	11.2930	1.4880	4.7576
C	8.1947	11.1924	9.6497
C	7.2758	4.7209	4.8631
C	10.1107	7.8202	9.9499
H	5.9252	0.1979	9.4179
H	3.5309	0.7524	1.5965
H	2.5334	6.5267	4.6141
H	3.5465	8.2711	6.1142
H	0.6879	6.0604	2.9311
H	2.5226	9.9318	5.6751
H	5.4096	1.9287	0.7912
H	5.0590	11.1110	8.7432
H	2.4046	2.2688	3.2340
H	0.7115	7.5591	9.0661
H	3.4584	4.1170	3.2928
H	2.5519	5.9953	1.9004
H	8.6533	0.8503	5.2513
H	6.1852	0.2854	7.2795
H	9.9121	5.8596	4.8009
H	10.5112	7.8724	6.1854
H	7.1453	4.2148	1.3647
H	7.8917	11.3755	6.5485
H	11.3257	2.2141	1.1178
H	11.7859	10.1122	7.2552
H	8.7265	1.2900	3.2052
H	6.6217	8.3556	7.5871
H	9.8698	3.7863	1.9497
H	9.0818	5.4959	0.3061
H	4.6144	11.3401	2.6822
H	2.8369	10.1794	3.2938
H	10.7277	-0.6405	9.3620
H	11.9611	0.9483	8.0875
H	10.5315	5.7304	7.6306
H	-0.6484	4.0053	7.5134
H	8.0862	7.5201	10.1194
H	6.4947	5.6696	8.6551
H	1.4064	0.6327	6.6228
H	1.1982	12.3931	4.5484
H	10.2498	11.9254	3.2840
H	9.7923	10.2404	1.9197
H	4.3646	6.3161	5.4484
H	4.8350	5.2383	7.3919
H	1.6008	8.1123	1.9764
H	0.5585	8.9769	0.2228
N	3.6816	10.5367	7.3065
N	0.5833	2.2921	2.2382
N	2.0973	8.0549	7.5941
N	5.3246	4.0951	2.3630
N	9.8148	10.7120	6.9509
N	7.0368	1.6400	2.0464
N	8.6032	8.1295	6.9677
N	11.6067	4.8253	2.4402
Ni	2.8484	9.4605	8.6825
Ni	6.1793	2.7231	3.4180
Ni	9.1666	9.4720	8.2606
Ni	12.2525	3.3699	3.6475
O	1.3100	4.3996	4.3036
O	5.0478	7.5265	9.3071
O	4.7041	1.3668	3.7515
O	0.6815	11.5547	8.9917
O	5.9516	4.4813	5.3341
O	3.0439	8.1596	10.1660
O	0.0081	1.8531	4.9566
O	2.6781	10.9966	9.9311
O	7.7036	3.9646	3.9952
O	10.8382	8.4192	9.1379
O	10.6326	2.1820	3.9070
O	7.4942	10.5770	8.7852
O	11.8479	4.5060	5.2508
O	8.8182	8.2029	9.9162
O	6.4926	1.5537	4.9878
O	9.4495	10.8421	9.7171
P	3.4098	11.4724	3.4063
P	11.9663	0.0879	9.2135
P	11.7597	5.2591	8.1612
P	6.3618	6.5998	9.7295
P	0.9349	12.0396	5.8925
P	10.1241	11.6125	1.9096
P	5.4088	5.7283	6.1863
P	0.3257	8.5280	1.5402
