108

C	3.8310	12.1163	5.3846
C	0.6638	0.6443	0.0312
C	5.0815	0.1020	5.7243
C	1.8053	12.4414	0.4016
C	5.7624	12.0777	6.8170
C	2.4081	0.1932	1.6237
C	2.7743	6.1882	5.8876
C	5.4243	5.9495	0.3769
C	3.1734	7.2569	6.7078
C	5.9343	4.8843	1.1378
C	3.2908	11.0944	6.1783
C	0.1501	1.6075	0.9152
C	5.1321	11.0631	7.5629
C	1.8406	1.2026	2.4159
C	1.0021	7.9966	6.9304
C	3.9998	4.7054	2.3792
C	0.4947	6.9204	6.1828
C	3.3922	5.7463	1.6509
C	1.4039	6.0088	5.6575
C	4.1299	6.3859	0.6487
C	5.6198	1.2248	4.9321
C	2.1406	11.3727	9.8379
C	0.8827	4.8884	4.8622
C	3.3547	7.5223	10.1460
C	9.6915	12.1721	5.3366
C	6.4863	-0.1296	0.7194
C	10.9372	0.2164	5.6392
C	7.8667	12.2560	0.5216
C	11.6317	12.2931	6.7595
C	8.7306	0.6702	1.0758
C	8.5438	6.8281	5.2292
C	12.0491	5.8719	0.1861
C	9.0113	7.8339	6.0875
C	12.5062	4.8533	1.0439
C	9.1860	11.1588	6.1726
C	6.0305	0.9158	1.5420
C	11.0196	11.3088	7.5595
C	8.1671	1.7279	1.8143
C	7.2111	7.5408	7.4928
C	10.6476	5.0657	2.3849
C	6.6887	6.4902	6.7261
C	10.0804	6.0558	1.5610
C	7.3745	6.1352	5.5719
C	10.8108	6.4725	0.4536
C	11.5196	1.2881	4.8084
C	8.2045	11.1577	9.9959
C	6.8705	5.0234	4.7606
C	10.0359	7.5501	9.8838
F	2.1197	10.6119	5.8747
F	2.3950	1.5201	3.5446
F	0.2024	8.9222	7.3447
F	7.1314	4.4413	0.8826
F	11.5841	10.9272	8.6544
F	8.9257	2.6799	2.2407
F	6.5730	7.9358	8.5511
F	10.0422	4.7172	3.4687
H	3.2433	12.4961	4.5607
H	5.5372	-0.8199	10.5672
H	0.1055	12.6640	7.0472
H	3.2779	12.1755	1.9871
H	3.5261	5.5145	5.4866
H	-0.0716	6.1788	9.6196
H	4.2174	7.4251	6.9573
H	0.9495	4.3512	0.8664
H	4.9747	1.0352	1.7707
H	5.6241	10.6316	8.4304
H	3.4690	4.2117	3.1886
H	5.7887	5.9806	7.0599
H	2.3820	6.0460	1.9050
H	9.1100	12.5016	4.4827
H	12.4356	0.4656	9.3668
H	6.7405	12.4276	7.1257
H	9.8099	13.1558	0.9517
H	9.1033	6.5836	4.3371
H	5.8316	6.4026	9.8986
H	9.9363	8.3714	5.8908
H	8.2273	10.6858	5.9695
H	11.7561	2.1731	0.6819
H	11.9276	6.8432	6.0257
H	9.1080	6.4636	1.8211
N	3.9135	10.5870	7.2631
N	0.7285	1.8921	2.0992
N	2.3070	8.1323	7.2493
N	5.2540	4.2887	2.1415
N	9.8340	10.7256	7.2712
N	6.8516	1.8181	2.1090
N	8.3578	8.1904	7.2110
N	11.8220	4.4470	2.1315
Ni	2.9266	9.4624	8.5946
Ni	6.1747	3.1216	3.4850
Ni	9.1159	9.4012	8.5914
Ni	12.4824	3.1192	3.4948
O	1.5787	4.2466	3.9963
O	4.1493	8.1776	9.3543
O	4.8591	1.8253	4.0710
O	1.6143	10.9776	8.7377
O	5.7688	4.4124	5.0107
O	2.1554	7.9098	10.1728
O	0.1824	1.7679	5.0283
O	3.2049	10.7251	10.1605
O	7.4996	4.5626	3.7407
O	10.6719	8.0976	8.9175
O	10.9154	1.8285	3.8158
O	7.5321	10.5270	9.0999
O	12.1759	4.4955	4.9646
O	8.8584	8.0288	10.0708
O	6.8001	1.6861	5.0042
O	9.4156	10.7735	10.1120
