116

C	3.5009	12.2513	5.4618
C	0.6121	0.3971	0.2550
C	4.8187	0.1582	5.6483
C	1.8699	12.3891	0.5410
C	5.5773	12.0608	6.6872
C	2.6089	0.4299	1.6224
C	2.4762	6.6872	5.4054
C	5.7257	5.9758	0.3302
C	2.8810	7.7503	6.2507
C	6.2144	4.9336	1.1172
C	2.9702	11.2326	6.2548
C	0.1052	1.4480	1.0209
C	4.9620	11.0401	7.4645
C	2.0075	1.4841	2.3762
C	0.7681	7.8635	7.2481
C	4.1448	4.6666	2.1815
C	0.2914	6.8334	6.4249
C	3.5864	5.7454	1.4421
C	1.1327	6.2219	5.4934
C	4.4001	6.3989	0.4677
C	5.3691	1.2161	4.7986
C	2.1609	11.2838	10.0080
C	0.6618	5.0611	4.7334
C	3.6756	7.5023	9.9202
C	9.7947	12.0958	5.4376
C	6.8000	0.3608	0.2359
C	11.1334	0.0351	5.5940
C	8.0999	12.4215	0.4501
C	11.8975	11.9998	6.6230
C	8.8762	0.5267	1.4722
C	8.6934	6.5322	5.5054
C	11.8980	5.8152	0.2879
C	9.1646	7.6083	6.2595
C	12.2954	4.7345	1.1144
C	9.3462	11.0326	6.2547
C	6.2908	1.4064	1.0070
C	11.3587	11.0037	7.4455
C	8.2891	1.6040	2.2072
C	7.1501	7.7562	7.4380
C	10.2755	4.7803	2.2828
C	6.6022	6.6586	6.7178
C	9.7911	5.8124	1.4690
C	7.3999	6.0402	5.7061
C	10.5914	6.3533	0.4599
C	11.6711	1.1338	4.7905
C	8.3864	11.3078	9.9314
C	6.9141	4.9388	4.8674
C	9.8854	7.4902	9.9438
H	2.8691	12.7065	4.7239
H	5.9280	-0.1029	9.7881
H	0.3812	12.3635	6.8238
H	3.8799	8.1472	6.1773
H	0.7536	4.2790	0.9719
H	1.9671	10.8709	6.1280
H	5.2958	1.7831	0.8698
H	5.4980	10.5671	8.2680
H	2.5134	1.9062	3.2244
H	0.1610	8.3135	8.0050
H	3.5608	4.1556	2.9249
H	12.2914	-0.0021	9.7333
H	9.3416	6.0798	4.7783
H	6.1686	6.4680	9.9250
H	10.1534	8.0080	6.1341
H	7.2284	4.5869	1.0522
H	8.3672	10.6115	6.1033
H	11.6530	1.8844	0.8187
H	11.8977	10.5857	8.2702
H	8.8376	2.0887	2.9916
H	6.5827	8.2367	8.2159
H	9.7037	4.3801	3.0950
H	11.7933	6.4824	6.5634
H	8.8140	6.2139	1.6601
H	7.1648	11.8840	7.7020
H	4.1619	0.5328	2.6723
H	4.2485	6.2904	4.8424
H	1.9984	5.6078	2.4452
H	8.0476	12.4791	4.8089
H	10.4183	0.6291	2.5380
H	5.0131	6.7912	7.7321
H	0.8992	6.0238	9.8488
N	3.7033	10.6526	7.2411
N	0.7906	1.9477	2.0832
N	2.0548	8.2859	7.1583
N	5.4187	4.3071	2.0247
N	10.1001	10.5383	7.2393
N	7.0284	1.9802	1.9952
N	8.3895	8.1986	7.2077
N	11.5148	4.2600	2.0909
Ni	2.8891	9.4251	8.5924
Ni	6.1623	3.0989	3.4155
Ni	9.1680	9.4191	8.5922
Ni	12.3996	3.0935	3.4897
O	1.3595	4.5045	3.7825
O	4.4120	8.0197	8.9717
O	4.6464	1.7497	3.8422
O	1.3984	10.6963	9.1346
O	5.7046	4.5076	4.8965
O	2.5126	8.0167	10.0550
O	0.3307	1.6231	4.9833
O	3.3588	10.8349	10.0771
O	7.6885	4.3587	4.0023
O	10.6265	8.1005	9.0766
O	10.9818	1.6914	3.8275
O	7.6585	10.7768	8.9742
O	12.0292	4.5147	4.9687
O	8.6895	7.9478	10.0706
O	6.5562	1.6755	4.8995
O	9.5383	10.7815	10.0841
O	6.8328	-0.1023	6.9372
O	3.8064	12.4909	1.9413
O	3.3314	6.1169	4.5641
O	2.3385	6.1308	1.6784
O	8.9726	0.1371	4.5623
O	10.0888	12.6300	1.7641
O	5.3751	6.2236	7.0082
O	-0.0084	6.3163	9.6537
