116

C	3.5291	12.4005	5.5928
C	0.5053	-0.0336	0.4751
C	4.7799	0.4635	5.7964
C	1.8576	12.1685	0.5457
C	5.6122	12.4610	6.7812
C	2.6551	0.2955	1.4866
C	2.6464	6.7205	5.3767
C	5.4534	5.7738	0.1048
C	2.9469	7.8216	6.1871
C	6.0154	4.8721	1.0207
C	3.1828	11.2835	6.3736
C	0.0014	0.9627	1.3388
C	5.2076	11.3184	7.5106
C	2.1080	1.3592	2.2304
C	0.8645	7.7266	7.2381
C	4.1534	5.0600	2.4111
C	0.4980	6.5993	6.4736
C	3.5366	5.9752	1.5452
C	1.4179	6.0857	5.5558
C	4.2212	6.3524	0.3906
C	5.2595	1.5857	4.9752
C	2.1996	11.1485	9.9326
C	1.0485	4.8936	4.7945
C	3.4920	7.3995	9.7741
C	9.9973	12.4047	5.3722
C	6.5680	0.5790	0.2610
C	11.2816	0.3415	5.6337
C	7.8026	12.5147	0.4305
C	12.0222	12.3734	6.7028
C	8.6302	0.4129	1.6084
C	8.4759	7.1762	5.1764
C	11.4783	5.1362	0.0816
C	9.1001	8.1220	6.0000
C	12.2251	4.4330	1.0294
C	9.4730	11.3977	6.1919
C	6.0801	1.5557	1.1523
C	11.4300	11.3981	7.4938
C	7.9905	1.4873	2.4583
C	7.7278	7.5432	7.7742
C	10.6336	4.8702	2.6906
C	6.9900	6.6348	6.9917
C	9.8399	5.6142	1.7974
C	7.4166	6.4118	5.6805
C	10.2613	5.7049	0.4713
C	11.8640	1.3461	4.7780
C	8.0290	11.4922	9.7948
C	6.8317	5.3232	4.8683
C	9.1896	6.2639	9.6907
C	6.1740	10.7384	8.4255
C	11.1026	1.0418	1.3986
C	-0.1428	8.2578	8.0844
C	7.2479	4.2700	0.7094
C	8.1997	10.8819	5.8776
C	4.8492	2.1470	0.8315
C	7.5058	7.8107	9.2209
C	10.2069	4.7534	4.0280
H	2.8124	12.7855	4.8738
H	5.6935	0.3156	9.7050
H	0.5176	12.7265	6.9238
H	3.6874	12.5334	1.6464
H	3.3876	6.3650	4.6696
H	-0.9043	5.2039	9.3327
H	3.9123	8.3174	6.1248
H	0.6686	3.9619	0.7824
H	2.2140	10.8061	6.2544
H	2.7236	1.9259	2.9234
H	3.6466	4.7212	3.3091
H	6.1660	6.0765	7.4260
H	2.5559	6.3677	1.7917
H	9.3967	12.8005	4.5587
H	12.0934	-0.5603	10.0955
H	6.5791	12.9038	6.9879
H	8.8031	12.0566	2.2702
H	8.8134	7.0666	4.1532
H	5.7647	6.0021	9.4665
H	9.9303	8.7253	5.6419
H	11.9767	10.9602	8.3228
H	8.5808	1.8858	3.2856
H	12.0184	6.1545	6.6030
H	8.9023	6.0300	2.1517
N	3.9846	10.7376	7.3089
N	0.8165	1.7080	2.1531
N	2.1017	8.3075	7.1159
N	5.3626	4.5402	2.1789
N	10.2017	10.9122	7.2453
N	6.7932	1.9780	2.2642
N	8.7245	8.3245	7.2780
N	11.7959	4.2642	2.2912
N	6.0278	9.5188	8.8939
N	9.9587	0.8565	1.2461
N	11.3968	8.6083	8.6377
N	8.2455	3.7417	0.4004
N	7.1498	10.5108	5.5166
N	3.8201	2.5767	0.4697
N	6.8002	8.8462	9.6492
N	9.7935	4.7326	5.1272
Ni	3.0160	9.3985	8.5064
Ni	6.0803	3.3677	3.5806
Ni	9.7075	9.5426	8.5051
Ni	12.7432	3.0535	3.4870
O	1.7182	4.3932	3.8180
O	4.1887	7.7862	8.7589
O	4.5408	2.1655	4.0773
O	1.5363	10.6676	8.9376
O	5.6938	4.7974	5.0909
O	2.4082	8.0463	9.9628
O	0.5931	1.6789	4.8582
O	3.3818	10.6774	10.0701
O	7.4663	4.7994	3.8694
O	9.3049	5.9949	8.5180
O	11.1613	1.9553	3.8854
O	7.3057	11.4541	8.5961
O	12.4732	4.2546	5.0544
O	8.1984	7.1651	10.1700
O	6.4530	2.0546	5.0648
O	9.0419	10.7731	9.9192
