108

C	3.9586	12.3478	5.8236
C	0.5863	0.5299	0.0900
C	5.2616	0.1476	6.1995
C	1.8077	12.4224	0.3572
C	5.8998	11.9345	7.1962
C	2.5428	0.3318	1.4590
C	1.6194	7.0145	5.0438
C	5.2863	5.5090	-0.0923
C	2.2958	7.9421	5.8576
C	5.7505	4.5345	0.7938
C	3.3057	11.3121	6.4940
C	0.0601	1.4299	1.0267
C	5.1738	10.8999	7.8132
C	1.9964	1.3409	2.2738
C	0.7848	7.5923	7.5748
C	4.2797	5.2361	2.4455
C	0.1573	6.5434	6.8811
C	3.7394	6.2273	1.6104
C	0.6224	6.2211	5.6058
C	4.2536	6.3503	0.3227
C	5.9771	1.3146	5.5853
C	2.1179	11.3025	9.8334
C	0.1834	5.0423	4.8439
C	3.5037	7.3953	9.7211
C	9.8573	12.0481	5.2685
C	7.1696	0.3257	0.3361
C	11.0784	0.0862	5.6653
C	8.3623	12.3852	0.8987
C	11.6821	12.1729	6.8516
C	8.9104	0.4941	2.0106
C	8.7276	6.8462	5.0173
C	11.8712	5.8107	0.1786
C	9.2104	7.7990	5.9234
C	12.3755	4.8129	1.0316
C	9.2440	11.0798	6.0643
C	6.4938	1.3767	0.9639
C	10.9960	11.1921	7.5806
C	8.1608	1.5250	2.5757
C	7.3249	7.5665	7.2757
C	10.3614	4.6829	2.1663
C	6.7836	6.5991	6.4300
C	9.7822	5.6744	1.3569
C	7.5163	6.2342	5.3033
C	10.5616	6.2513	0.3544
C	11.6783	1.1526	4.8463
C	8.8368	11.1810	10.6457
C	7.0606	5.1463	4.4584
C	9.8537	7.3439	9.7736
Cl	5.8601	10.0283	9.0711
Cl	2.9502	2.0371	3.4519
Cl	3.7256	8.5753	5.2459
Cl	3.7454	5.1124	4.0239
Cl	11.5048	10.5287	9.0457
Cl	8.5597	2.2759	4.0330
Cl	10.7210	8.4478	5.5849
Cl	1.4655	4.3490	0.7882
H	3.4340	12.8895	5.0467
H	6.5218	-0.1207	9.7191
H	0.1277	12.5580	7.2092
H	3.5250	12.4520	1.6904
H	1.9348	6.8908	4.0155
H	-0.2051	6.2280	9.6968
H	2.2768	11.0416	6.2724
H	5.5424	1.7579	0.5957
H	0.4249	7.9018	8.5492
H	5.8289	6.1442	6.6651
H	2.9581	6.8853	1.9769
H	9.3703	12.3384	4.3502
H	12.2904	0.3311	9.4688
H	6.9162	12.1460	7.5171
H	9.8638	12.7259	2.4366
H	9.3190	6.5814	4.1460
H	5.5076	5.6000	9.1984
H	6.5708	3.8765	0.5241
H	8.3003	10.6103	5.7935
H	11.5759	1.8630	0.9037
H	6.8105	7.8637	8.1833
H	9.7943	4.2365	2.9762
H	11.8380	6.0213	7.3525
H	8.7583	5.9709	1.5499
N	3.8992	10.5986	7.4697
N	0.7404	1.8262	2.1181
N	1.8683	8.2480	7.1120
N	5.2425	4.3687	2.0338
N	9.8179	10.6561	7.1979
N	6.9822	1.9585	2.0714
N	8.5122	8.1581	7.0389
N	11.6280	4.2511	2.0233
Ni	2.8438	9.3161	8.5043
Ni	6.1780	3.1997	3.3363
Ni	9.2018	9.2967	8.5008
Ni	12.3665	3.0574	3.4864
O	0.9996	4.5523	3.9618
O	4.1314	7.7776	8.6644
O	5.5694	1.6855	4.4104
O	1.5539	10.8576	8.7567
O	6.1481	4.3380	4.8897
O	2.4150	8.0296	9.9705
O	0.2492	1.7713	5.1215
O	3.1665	10.6719	10.1759
O	7.5432	4.8950	3.3116
O	10.5807	7.7899	8.8135
O	11.0985	1.5649	3.7589
O	8.4934	10.7994	9.4514
O	11.5966	4.4130	4.9727
O	8.7335	7.9532	9.9221
O	6.9028	1.8442	6.2241
O	9.6952	10.6049	11.3352
