132

C	4.0003	12.3196	5.5614
C	0.3234	0.2591	0.2246
C	5.2446	0.1868	6.0423
C	1.6244	12.3175	0.4345
C	5.7589	12.0934	7.1795
C	2.4140	0.3605	1.4328
C	2.8017	6.9925	5.1651
C	5.8764	6.0373	0.1318
C	3.1134	7.9153	6.1775
C	6.3914	4.9637	0.9026
C	3.2517	11.3040	6.2254
C	-0.1504	1.2805	1.0578
C	4.9918	11.0948	7.7974
C	1.9123	1.4313	2.2054
C	1.1045	7.4920	7.3215
C	4.5329	5.1487	2.3375
C	0.7834	6.4909	6.3638
C	3.9804	6.2020	1.5962
C	1.6217	6.2579	5.2828
C	4.6680	6.6415	0.4666
C	6.0632	1.2085	5.3237
C	1.9656	11.2482	9.8882
C	1.2351	5.2445	4.2525
C	3.8608	7.7194	9.9292
C	9.7067	11.9648	5.1729
C	6.7792	0.1965	0.2394
C	10.9492	-0.0182	5.4762
C	8.0421	12.2212	0.5469
C	11.6296	12.1014	6.6237
C	8.7492	0.2609	1.6125
C	8.0974	6.7004	5.4767
C	11.3128	5.6947	0.4345
C	8.8820	7.5995	6.2351
C	11.9008	4.6353	1.1383
C	9.1063	11.0181	6.0367
C	6.2281	1.2888	0.9518
C	11.0116	11.1461	7.4345
C	8.1276	1.2832	2.3487
C	7.1077	7.7563	7.7851
C	10.3743	4.8470	2.9267
C	6.3358	6.8084	7.1031
C	9.7377	5.9118	2.2414
C	6.8723	6.2468	5.9491
C	10.2204	6.3420	1.0108
C	11.5059	1.0229	4.6231
C	8.3705	11.1358	9.9966
C	6.1562	5.1507	5.2408
C	9.2988	7.4667	10.5863
C	1.9737	10.8755	5.6765
C	2.7153	2.1479	3.1775
C	0.1800	7.7874	8.3949
C	7.6430	4.3176	0.5275
C	7.7999	10.4780	5.6911
C	4.9972	1.9153	0.4883
C	10.2244	7.9690	5.7976
C	9.9499	4.4102	4.2497
H	3.5647	12.7697	4.6774
H	5.9576	-0.2124	9.7068
H	0.0913	12.5027	6.8995
H	3.4205	12.5312	1.6264
H	3.4873	6.8578	4.3372
H	-1.0201	5.9844	9.7467
H	4.0438	8.4770	6.1612
H	0.2621	4.1049	0.7548
H	5.3695	10.5697	8.6685
H	4.0406	4.7898	3.2383
H	5.3602	6.5352	7.4866
H	3.0413	6.6356	1.9140
H	9.1494	12.2701	4.2948
H	11.9447	-0.1632	9.7458
H	6.7315	12.3454	7.5846
H	9.7408	12.4542	1.9047
H	8.5018	6.3561	4.5392
H	6.2406	6.3586	9.5595
H	11.3401	1.6634	0.9791
H	11.5094	10.7771	8.3279
H	8.6279	1.7216	3.2111
H	6.7384	8.2385	8.6853
H	12.3640	5.9412	6.4968
H	8.8564	6.3772	2.6707
H	1.3227	10.4472	6.4338
H	1.5048	11.6893	5.1243
H	2.1639	10.0812	4.9322
H	2.6538	3.2271	2.9783
H	2.3012	2.0373	4.1896
H	3.7420	1.8035	3.1845
H	0.0757	8.8647	8.5546
H	0.6063	7.4402	9.3507
H	11.7252	7.3155	8.2301
H	8.2128	4.0056	1.4062
H	8.2265	4.9551	-0.1301
H	7.1938	3.3921	10.2468
H	7.2325	10.1700	6.5656
H	7.2595	11.1928	5.0744
H	7.9342	9.5815	5.0625
H	4.4183	2.3494	1.3017
H	4.4155	1.2225	-0.1151
H	5.0357	2.7596	10.1048
H	10.8354	8.3590	6.6060
H	10.7088	7.1280	5.2992
H	10.1413	8.7501	5.0251
H	10.3435	3.4370	4.5344
H	10.2848	5.1416	4.9994
H	8.8554	4.3918	4.3276
N	3.7825	10.7326	7.3462
N	0.6212	1.8228	2.0135
N	2.2898	8.1609	7.2091
N	5.6816	4.5456	1.9924
N	9.7937	10.6463	7.1572
N	6.9130	1.7682	2.0337
N	8.3345	8.1059	7.3726
N	11.4356	4.2323	2.3321
Ni	2.8752	9.4656	8.5805
Ni	6.2411	3.1387	3.2471
Ni	9.1907	9.3964	8.5138
Ni	12.3462	2.9164	3.4162
O	1.6263	5.3580	3.0759
O	4.5030	8.3387	9.0052
O	5.4343	1.9303	4.4358
O	1.3228	10.6810	8.9255
O	4.9497	4.9293	5.4232
O	2.6482	8.1103	10.0762
O	0.1390	1.5650	4.8503
O	3.1560	10.8090	10.0653
O	6.8939	4.4370	4.4275
O	9.9305	8.0097	9.5849
O	10.8663	1.5105	3.6198
O	7.6332	10.4725	9.1698
O	12.9885	4.2636	4.6421
O	8.1701	7.8463	10.9467
O	7.2781	1.3420	5.5434
O	9.5991	10.7878	10.0026
