132

C	3.3145	11.9548	5.4590
C	0.3297	-0.0936	0.4493
C	4.6424	-0.0783	5.6237
C	1.6929	12.1222	0.4999
C	5.5080	11.7757	6.4976
C	2.5746	0.4079	1.2631
C	2.3893	6.5209	5.3584
C	5.5173	5.4306	0.1949
C	2.8362	7.5594	6.1726
C	6.0319	4.5991	1.2170
C	2.9020	10.9372	6.3574
C	-0.1444	1.0408	1.1151
C	5.0095	10.7782	7.3463
C	2.0114	1.5782	1.8542
C	0.9142	7.4010	7.5010
C	4.1896	4.9274	2.6027
C	0.4327	6.2530	6.8020
C	3.6694	5.8828	1.7185
C	1.1849	5.8717	5.6534
C	4.3564	6.1700	0.5328
C	5.1569	1.1445	4.9694
C	1.9699	10.9707	10.0108
C	0.7312	4.8229	4.7269
C	3.6413	7.2645	9.9548
C	9.8771	12.1674	5.2599
C	6.9613	0.9353	0.1049
C	11.0776	0.2838	5.5857
C	8.0873	12.6878	0.4867
C	11.7815	12.4470	6.7702
C	8.7001	0.4025	1.7221
C	8.9091	6.7713	5.5346
C	12.1308	6.3488	0.4765
C	9.2672	7.8285	6.4138
C	12.5556	5.1961	1.1466
C	9.3579	11.1881	6.1034
C	6.3954	1.7426	1.1202
C	11.2232	11.3607	7.5090
C	8.1190	1.3103	2.6193
C	7.1171	7.9917	7.3037
C	10.3810	4.7560	1.8911
C	6.6729	6.9513	6.4776
C	9.8681	5.9516	1.3038
C	7.5764	6.2817	5.6448
C	10.7809	6.7138	0.5244
C	11.5697	1.3207	4.6668
C	8.3814	11.6036	9.9120
C	7.0844	5.0629	4.9662
C	10.0927	7.8747	10.0167
C	2.3589	-0.2067	4.4214
C	3.9683	12.5840	1.5422
C	11.8005	5.5302	7.3866
C	5.9714	5.4306	9.1719
C	0.4406	0.6161	7.3378
C	6.1185	13.5006	9.0506
C	9.9289	6.3598	4.5806
C	8.4933	6.3610	1.5953
H	2.9894	6.2348	4.5204
H	0.1268	6.9386	10.2340
H	3.7748	8.0564	6.0061
H	1.0777	4.8831	1.1487
H	1.8905	10.5741	6.3263
H	5.4731	2.2437	0.9176
H	5.6050	10.3449	8.1226
H	2.6291	2.2453	2.4302
H	0.3514	7.8182	8.3126
H	3.6888	4.6303	3.4987
H	5.6517	6.6359	6.5483
H	2.7556	6.3892	1.9684
H	9.3335	12.4169	4.3751
H	11.9025	-0.7165	10.2155
H	6.5348	12.0642	6.5908
H	9.5997	12.4108	2.0021
H	10.2767	8.1976	6.4202
H	6.9841	4.1345	1.0718
H	8.4167	10.7046	5.9128
H	11.3201	1.3052	1.1180
H	11.7411	10.9581	8.3550
H	8.5575	1.5529	3.5630
H	6.4761	8.4471	8.0302
H	9.7342	4.1133	2.4624
H	1.3510	12.0814	4.7169
H	2.4640	0.8205	4.1282
H	2.5738	11.7063	3.5444
H	4.4079	0.7476	2.2368
H	4.0399	11.5754	1.9371
H	4.5264	0.0137	0.6143
H	11.1301	6.2111	7.8902
H	12.1937	4.8640	8.1629
H	11.2889	4.9080	6.6752
H	6.6470	4.5949	9.0754
H	6.5537	6.3473	9.0852
H	5.2585	5.4523	8.3619
H	1.0443	12.4661	7.9236
H	0.0728	1.3852	8.0263
H	1.0205	13.6570	6.5942
H	5.5148	1.8618	8.9165
H	5.4546	12.6395	8.9582
H	6.8556	0.8823	8.2709
H	10.9170	6.5881	4.9402
H	9.8293	5.3282	4.3007
H	9.7928	6.9547	3.6785
H	8.0297	5.7045	2.3054
H	8.4704	7.3808	1.9668
H	7.9273	6.4110	0.6728
N	3.7155	10.3972	7.2741
N	0.6945	1.8480	1.8112
N	2.0885	7.9877	7.2154
N	5.3782	4.3373	2.3573
N	10.0372	10.8059	7.2083
N	6.9516	1.9210	2.3282
N	8.4060	8.3974	7.2692
N	11.6825	4.4234	1.8407
Ni	2.8896	9.1896	8.5966
Ni	6.1314	3.0953	3.7447
Ni	9.1637	9.6659	8.5919
Ni	12.4039	3.0958	3.1585
O	1.4949	4.3422	3.8036
O	4.3861	7.8578	9.0787
O	4.4520	1.9268	4.2231
O	1.2357	10.3416	9.1531
O	5.8729	4.6485	5.1459
O	2.4476	7.7214	10.0718
O	0.2581	1.7851	4.7089
O	3.1843	10.5395	10.0869
O	7.7860	4.3278	4.1718
O	10.8477	8.4879	9.1688
O	10.8288	1.8204	3.7307
O	7.6605	11.0139	9.0125
O	12.0427	4.3482	4.7345
O	8.8808	8.3238	10.0784
O	6.3810	1.5273	5.1324
O	9.5707	11.1451	10.0659
