204

Ni	2.9549	9.3788	9.2612
Ni	6.6478	3.2653	4.1800
O	0.3964	4.2399	4.0052
O	4.2455	8.0803	9.4491
O	6.7864	1.7267	5.1975
O	1.6833	10.6127	9.4487
O	6.7009	4.2277	5.7167
O	2.8026	8.3020	0.4540
O	11.6552	2.2186	5.1059
O	3.6449	10.6588	0.3738
N	3.7976	10.6146	7.7363
N	12.3970	1.7400	2.7231
N	2.0174	8.0153	7.8046
N	6.3102	4.9616	3.1603
C	4.6579	11.0806	5.4664
C	1.0043	0.9790	0.7601
H	4.6966	10.7661	4.4300
H	7.9652	2.8479	9.7198
C	5.2348	12.3169	5.8514
C	1.5565	12.2847	1.2186
C	4.9282	0.1775	7.1333
C	1.1260	12.0523	2.5453
H	11.7966	0.1924	6.1097
H	1.4243	11.1280	3.0173
C	1.0521	7.4325	5.5054
C	5.6390	5.7431	0.9641
H	0.9589	7.7648	4.4864
H	9.5602	4.7446	9.3069
C	1.9747	8.1906	6.4153
C	6.6206	5.1296	1.8606
H	2.8766	8.4013	5.9616
C	3.7159	10.4433	6.3651
C	12.3736	1.6000	1.3954
H	2.7669	10.3269	5.9399
C	4.6859	11.6433	8.0909
C	0.6952	0.7402	3.3594
C	1.3006	6.8830	8.1854
C	5.2950	5.8053	3.6090
C	1.0058	5.7917	7.1770
C	4.8818	6.9560	2.7633
H	6.1393	6.3672	6.5077
H	4.5214	7.8810	3.1921
C	0.5767	6.1287	5.8720
C	4.7660	6.7317	1.3930
C	6.0287	0.6673	4.8585
C	2.4287	11.2475	0.2132
C	12.2880	5.0766	4.8560
C	3.9639	7.6454	0.3076
Ni	9.2387	9.8167	9.0593
Ni	11.4407	3.2248	3.7724
O	8.3391	3.8630	4.5817
O	9.4009	8.0747	8.6305
O	9.9340	2.2555	3.7752
O	9.2947	11.3946	10.0483
O	10.9867	4.6124	4.9443
O	9.5703	8.8548	0.3307
O	6.7873	1.7255	5.1994
O	9.2907	11.3884	10.0325
N	9.6733	10.8307	7.3615
N	7.0938	2.1472	2.5178
N	8.8256	8.1065	7.6752
N	10.7980	4.3647	2.2585
C	9.2704	11.8314	5.1447
C	8.0298	2.2206	0.3047
H	9.2508	11.5693	4.1017
H	1.6303	1.6102	0.2436
C	9.9548	0.4570	5.5878
C	8.8472	1.0997	0.5091
C	10.8256	0.1746	6.5003
C	8.8655	0.6295	1.7971
H	5.1952	1.1366	7.4206
H	9.5803	12.3911	2.0807
C	9.2843	6.8287	5.6161
C	9.9337	5.0052	0.0558
H	9.8966	6.7195	4.7698
H	5.4531	5.3643	0.0165
C	9.4530	7.9967	6.3574
C	10.5030	4.0040	0.9665
H	10.2281	8.6734	6.0515
H	7.5471	4.7373	1.5079
C	9.0400	10.7906	6.1031
C	6.8863	2.4180	1.1799
H	8.3384	10.0303	5.8497
H	11.4306	1.6181	0.8928
C	10.6400	11.7770	7.4931
C	7.9163	1.0601	2.7268
H	8.0783	0.7158	3.6699
C	7.4744	7.5699	7.6134
C	10.1081	5.4569	2.6797
H	9.3846	5.3202	3.4078
C	7.0934	6.8298	6.4630
C	9.8814	6.5426	1.8714
H	0.7592	4.8020	7.5162
H	9.4423	7.4235	2.3226
C	8.0881	6.1358	5.7549
C	9.8187	6.3815	0.5046
C	10.4876	1.6331	4.7917
C	8.9829	0.0995	9.6680
C	7.9040	4.6117	5.6001
C	9.6032	7.7488	9.9751
C	5.8982	11.2327	8.8133
C	5.6385	9.9565	9.2454
H	5.7661	9.1650	8.4908
H	5.6596	9.7998	0.0494
H	5.6593	9.7998	0.0493
C	6.3898	11.9242	10.0209
H	6.0658	11.7935	0.6667
H	7.3691	11.3354	0.2537
H	6.5713	0.3862	9.6827
C	6.9871	11.0927	7.8231
H	6.6383	10.5430	6.9281
H	7.4220	12.0789	7.5478
H	7.6824	10.3992	8.2348
C	1.7468	1.1331	4.4336
C	1.6898	2.3414	5.4509
H	1.9382	3.3302	5.1763
H	2.4329	2.1191	6.2141
H	0.9194	2.4359	6.2149
C	1.7706	12.5233	5.3850
H	1.2236	0.2264	6.2596
H	2.7300	0.0148	5.8503
H	1.4193	11.5556	5.0253
C	3.1079	1.0984	3.6904
H	2.9597	1.3996	2.6721
H	3.5344	0.0792	3.6040
H	3.8792	1.7352	4.0716
C	0.1105	7.1325	9.0116
C	0.1400	8.0835	10.1718
H	0.6712	8.8562	9.7912
H	11.9471	8.4343	0.2918
H	0.7251	7.7432	0.8512
C	12.1844	5.8551	9.5799
H	0.5161	5.2322	9.6905
H	12.1206	5.9195	0.3472
H	11.5370	5.3322	8.8787
C	11.6821	7.6460	7.9582
H	12.0132	8.0646	7.0351
H	11.0475	6.8214	7.5931
H	11.3381	8.6385	8.1796
C	4.1532	5.1984	4.4279
C	4.4068	4.0256	5.3388
H	3.9286	3.1521	5.6303
H	4.6945	4.3383	6.3617
H	4.9249	3.3679	4.6943
C	3.0542	4.7698	3.5028
H	3.4413	4.8623	2.5476
H	2.8431	3.7055	3.4583
H	2.1788	5.4259	3.5334
C	3.7008	6.3174	5.2332
H	4.4899	6.9566	5.5958
H	3.1623	6.9800	4.5483
H	3.1310	5.9702	6.0755
C	11.8857	11.5201	8.2651
C	11.7042	10.9306	9.6793
H	11.0828	10.0845	9.5691
H	11.6698	11.7168	0.1327
H	0.0618	10.5660	0.1848
C	-0.0412	0.3733	8.5138
H	11.7159	0.8651	9.1393
H	0.9240	0.2384	8.8901
H	0.1216	1.1260	7.7391
C	0.2587	10.6737	7.3300
H	-0.1239	10.4926	6.2996
H	1.2688	11.0414	7.2934
H	0.4566	9.7457	7.7667
C	5.4460	2.3242	0.5371
C	4.5062	3.2577	1.2098
H	4.0366	3.9842	0.5394
H	3.5650	2.8886	1.5061
H	4.8617	3.4113	2.2235
C	4.6260	1.0359	0.6238
H	4.7691	0.4905	1.5765
H	3.5678	1.1537	0.5422
H	4.3318	0.5231	9.9575
C	5.4119	2.6932	9.3379
H	5.8265	3.6317	9.3641
H	6.1909	2.1695	8.7807
H	4.5784	2.7254	8.6880
C	6.9795	6.9952	8.8562
C	7.0052	7.7520	10.1756
H	7.3624	8.7512	10.0444
H	6.3752	7.9647	0.4030
H	7.6593	7.2641	0.7684
C	7.0957	5.5548	8.8572
H	7.8627	5.1475	8.1967
H	7.3260	5.1574	9.8143
H	6.1587	5.2869	8.3969
C	6.9863	8.7177	4.0424
H	7.0640	11.0536	2.9794
H	4.2515	6.6913	7.7344
H	5.3866	8.6698	6.3894
C	-0.1572	3.1109	9.3308
C	2.3399	2.4431	8.5963
H	10.0770	2.3398	9.2512
H	1.6673	3.2099	1.7689
H	0.3701	4.6440	1.7719
C	2.1173	5.9018	1.1071
H	0.1437	6.8893	2.7205
H	4.2028	4.7766	8.4255
H	2.4400	4.8100	9.3013
C	10.5690	3.5822	7.2378
H	8.6445	1.9039	7.5798
H	2.7280	4.1803	7.1032
H	2.6212	0.1913	7.9777
