124

Ni	2.9028	9.4421	8.6245
O	1.4194	4.3784	4.0368
O	4.6360	1.6666	3.8035
O	5.7451	4.4111	5.1094
O	0.3079	1.5003	4.8721
N	3.7677	10.5560	7.1530
N	2.0951	8.0914	7.3471
C	3.5585	12.0137	5.2748
H	3.0266	12.3506	4.5628
C	4.8383	12.4984	5.4834
C	5.5898	11.9548	6.5283
H	0.2284	12.2454	6.6834
C	2.4254	6.5009	5.5902
H	2.9870	6.1490	4.9091
C	2.8617	7.5541	6.3875
H	3.7328	7.9060	6.2457
C	3.0629	11.0319	6.1132
C	5.0180	10.9918	7.3328
H	5.5326	10.6236	8.0407
C	0.8614	7.5704	7.5475
C	0.3657	6.5159	6.8077
H	5.7518	6.1678	6.9773
C	1.1715	5.9737	5.8009
C	5.3864	1.1183	4.6748
C	0.6533	4.8365	4.9471
Ni	6.1430	3.0813	3.4874
O	4.4320	8.1450	9.1739
O	1.3958	10.8568	8.9407
O	2.5049	8.1123	10.2465
O	3.3205	11.0231	10.0092
N	0.7551	1.9674	2.0158
N	5.3353	4.4320	2.2100
C	0.5459	0.5097	0.1377
H	-0.2136	0.1728	9.6999
C	1.8257	0.0250	0.3462
C	2.5772	0.5686	1.3911
H	3.4686	0.2780	1.5463
C	5.6656	6.0225	0.4531
H	5.9996	6.3744	10.0462
C	6.1019	4.9693	1.2504
C	0.0503	1.4915	0.9761
H	5.4351	1.8409	0.8127
C	2.0054	1.5316	2.1956
H	2.5200	1.8998	2.9035
C	4.1016	4.9530	2.4103
C	3.6059	6.0075	1.6706
H	2.7392	6.3556	1.8401
C	4.4117	6.5497	0.6637
C	2.1462	11.4051	9.8119
C	3.6659	7.6869	10.0842
Ni	9.1556	9.4421	8.6245
O	7.6722	4.3784	4.0368
O	10.8888	1.6666	3.8035
O	11.9979	4.4111	5.1094
O	6.5607	1.5003	4.8721
N	10.0205	10.5560	7.1530
N	8.3479	8.0914	7.3471
C	9.8113	12.0137	5.2748
H	9.2794	12.3506	4.5628
C	11.0911	12.4984	5.4834
C	11.8426	11.9548	6.5283
H	6.4812	12.2454	6.6834
C	8.6782	6.5009	5.5902
H	9.2398	6.1490	4.9091
C	9.1145	7.5541	6.3875
C	9.3157	11.0319	6.1132
C	11.2708	10.9918	7.3328
H	11.7854	10.6236	8.0407
C	7.1142	7.5704	7.5475
H	6.5664	7.9473	8.2266
C	6.6185	6.5159	6.8077
H	12.0046	6.1678	6.9773
C	7.4243	5.9737	5.8009
C	11.6392	1.1183	4.6748
C	6.9061	4.8365	4.9471
Ni	12.3958	3.0813	3.4874
O	10.6848	8.1450	9.1739
O	7.6486	10.8568	8.9407
O	8.7577	8.1123	10.2465
O	9.5733	11.0231	10.0092
N	7.0079	1.9674	2.0158
N	11.5881	4.4320	2.2100
C	6.7987	0.5097	0.1377
H	6.0392	0.1728	9.6999
C	8.0785	0.0250	0.3462
C	8.8300	0.5686	1.3911
H	9.7214	0.2780	1.5463
C	11.9184	6.0225	0.4531
H	12.2524	6.3744	10.0462
C	12.3547	4.9693	1.2504
H	6.9730	4.6174	1.1086
C	6.3031	1.4915	0.9761
C	8.2582	1.5316	2.1956
C	10.3544	4.9530	2.4103
H	9.8066	4.5761	3.0895
C	9.8587	6.0075	1.6706
H	8.9920	6.3556	1.8401
C	10.6645	6.5497	0.6637
C	8.3990	11.4051	9.8119
C	9.9187	7.6869	10.0842
N	1.7241	10.5047	5.8444
N	1.2196	9.6197	6.5614
H	0.2763	9.2642	6.3529
N	0.0074	8.1440	8.5929
N	0.3909	9.0967	9.2980
H	-0.2284	9.4807	10.0251
N	-1.2885	2.0187	0.7072
N	-1.7930	2.9037	1.4242
H	-2.7363	3.2592	1.2158
N	3.2476	4.3794	3.4557
N	3.6311	3.4267	4.1609
H	3.0118	3.0427	4.8880
N	7.9769	10.5047	5.8444
N	7.4724	9.6197	6.5614
H	6.5291	9.2643	6.3530
N	10.4608	8.0785	6.1533
N	10.9140	9.0204	6.8311
H	11.8635	9.3743	6.6502
N	9.0686	2.0876	3.2856
N	8.6147	2.9604	4.0500
H	9.2013	3.3361	4.8079
N	13.7010	4.4450	1.0162
N	14.1542	3.5031	1.6940
H	15.1037	3.1491	1.5131
