140

Ni	2.9028	9.4421	8.6245
O	1.4194	4.3784	4.0368
O	4.6360	1.6666	3.8035
O	5.7451	4.4111	5.1094
O	0.3079	1.5003	4.8721
N	3.7677	10.5560	7.1530
N	2.0951	8.0914	7.3471
C	3.5585	12.0137	5.2748
C	4.8383	12.4984	5.4834
C	5.5898	11.9548	6.5283
H	0.2284	12.2454	6.6834
C	2.4254	6.5009	5.5902
H	2.9870	6.1490	4.9091
C	2.8617	7.5541	6.3875
H	3.7328	7.9060	6.2457
C	3.0629	11.0319	6.1132
H	2.1949	10.6825	5.9498
C	5.0180	10.9918	7.3328
H	5.5326	10.6236	8.0407
C	0.8614	7.5704	7.5475
H	0.3136	7.9473	8.2266
C	0.3657	6.5159	6.8077
C	1.1715	5.9737	5.8009
C	5.3864	1.1183	4.6748
C	0.6533	4.8365	4.9471
Ni	6.1430	3.0813	3.4874
O	4.4320	8.1450	9.1739
O	1.3958	10.8568	8.9407
O	2.5049	8.1123	10.2465
O	3.3205	11.0231	10.0092
N	0.7551	1.9674	2.0158
N	5.3353	4.4320	2.2100
C	0.5459	0.5097	0.1377
H	-0.2136	0.1728	9.6999
C	1.8257	0.0250	0.3462
C	2.5772	0.5686	1.3911
C	5.6656	6.0225	0.4531
H	5.9996	6.3744	10.0462
C	6.1019	4.9693	1.2504
H	0.7202	4.6174	1.1086
C	0.0503	1.4915	0.9761
H	5.4351	1.8409	0.8127
C	2.0054	1.5316	2.1956
H	2.5200	1.8998	2.9035
C	4.1016	4.9530	2.4103
H	3.5538	4.5761	3.0895
C	3.6059	6.0075	1.6706
C	4.4117	6.5497	0.6637
C	2.1462	11.4051	9.8119
C	3.6659	7.6869	10.0842
Ni	9.1556	9.4421	8.6245
O	7.6722	4.3784	4.0368
O	10.8888	1.6666	3.8035
O	11.9979	4.4111	5.1094
O	6.5607	1.5003	4.8721
N	10.0205	10.5560	7.1530
N	8.3479	8.0914	7.3471
C	9.8113	12.0137	5.2748
C	11.0911	12.4984	5.4834
C	11.8426	11.9548	6.5283
H	6.4812	12.2454	6.6834
C	8.6782	6.5009	5.5902
H	9.2398	6.1490	4.9091
C	9.1145	7.5541	6.3875
H	9.9856	7.9060	6.2457
C	9.3157	11.0319	6.1132
H	8.4477	10.6825	5.9498
C	11.2708	10.9918	7.3328
H	11.7854	10.6236	8.0407
C	7.1142	7.5704	7.5475
H	6.5664	7.9473	8.2266
C	6.6185	6.5159	6.8077
C	7.4243	5.9737	5.8009
C	11.6392	1.1183	4.6748
C	6.9061	4.8365	4.9471
Ni	12.3958	3.0813	3.4874
O	10.6848	8.1450	9.1739
O	7.6486	10.8568	8.9407
O	8.7577	8.1123	10.2465
O	9.5733	11.0231	10.0092
N	7.0079	1.9674	2.0158
N	11.5881	4.4320	2.2100
C	6.7987	0.5097	0.1377
C	8.0785	0.0250	0.3462
C	8.8300	0.5686	1.3911
H	9.7214	0.2780	1.5463
C	11.9184	6.0225	0.4531
H	12.2524	6.3744	10.0462
C	12.3547	4.9693	1.2504
H	6.9730	4.6174	1.1086
C	6.3031	1.4915	0.9761
H	11.6879	1.8409	0.8127
C	8.2582	1.5316	2.1956
H	8.7728	1.8998	2.9035
C	10.3544	4.9530	2.4103
H	9.8066	4.5761	3.0895
C	9.8587	6.0075	1.6706
C	10.6645	6.5497	0.6637
C	8.3990	11.4051	9.8119
C	9.9187	7.6869	10.0842
O	2.8037	12.5153	4.2403
C	1.5192	12.1239	3.9209
H	1.1733	12.7042	3.0412
H	1.4990	11.0442	3.6602
H	0.8319	12.3282	4.7695
O	-0.8782	5.9942	7.0315
C	-1.7677	6.4363	7.9898
H	-2.6909	5.8238	7.9353
H	-1.3294	6.3225	9.0042
H	-2.0382	7.4977	7.8040
O	3.8628	0.1322	1.5912
C	4.7128	0.5820	2.5813
H	5.6817	0.0489	2.4948
H	4.8987	1.6709	2.4642
H	4.2830	0.3702	3.5836
O	2.3620	6.5292	1.8944
C	1.4725	6.0871	2.8527
H	0.5493	6.6996	2.7982
H	1.2020	5.0257	2.6669
H	1.9108	6.2010	3.8671
O	9.0565	12.5153	4.2403
C	7.7720	12.1239	3.9209
H	7.4261	12.7042	3.0412
H	7.0847	12.3281	4.7695
H	7.7518	11.0442	3.6602
O	5.3746	5.9942	7.0315
C	4.4851	6.4363	7.9898
H	3.5619	5.8238	7.9353
H	4.9234	6.3225	9.0042
H	4.2146	7.4977	7.8040
O	6.0439	0.0081	-0.8969
C	4.7594	0.3995	-1.2162
H	4.4135	-0.1808	-2.0959
H	4.0721	0.1953	-0.3676
H	4.7392	1.4792	-1.4769
O	8.6148	6.5292	1.8944
C	7.7253	6.0871	2.8527
H	6.8021	6.6996	2.7982
H	7.4548	5.0257	2.6669
H	8.1636	6.2010	3.8671
