140
Atoms. Timestep: 0
Ni 2.89857 9.41116 8.59265
Ni 6.17525 3.10579 3.48481
O 1.44827 4.35425 3.93374
O 4.4416 8.15245 9.05464
O 4.63665 1.84729 3.87523
O 1.36499 10.6744 9.00295
O 5.80609 4.46033 4.96242
O 2.54244 8.0327 10.0675
O 0.25117 1.69264 4.94273
O 3.23722 10.8047 10.0626
N 3.69677 10.6606 7.2416
N 0.71256 1.8642 2.11704
N 2.17217 8.14409 7.25198
N 5.44023 4.39481 2.13747
C 3.48546 12.1483 5.36301
C 0.47488 0.38955 0.2292
H 2.86453 12.5181 4.55267
C 4.76073 0.1474 5.61481
C 1.74333 12.3699 0.47412
C 5.50345 12.1502 6.68209
C 2.49852 0.35508 1.54004
H 0.24768 12.5084 6.91993
H 3.49155 12.5067 1.77336
C 2.48363 6.6337 5.40822
C 5.72803 5.90364 0.28669
H 3.13294 6.27291 4.61605
H -0.10828 6.26667 9.7662
C 2.92756 7.68099 6.23068
C 6.1883 4.86756 1.11596
H 3.89994 8.14655 6.0889
H 0.91589 4.41889 0.97634
C 2.98256 11.1359 6.19748
C -0.01036 1.40553 1.07106
H 1.99392 10.709 6.04703
H 5.26093 1.85011 0.92351
C 4.93641 11.1381 7.47507
C 1.94823 1.3719 2.3406
H 5.48559 10.7097 8.30944
H 2.50886 1.79214 3.17267
C 0.94573 7.62654 7.47302
C 4.21083 4.90458 2.35686
H 0.36328 8.05184 8.28732
H 3.63605 4.47744 3.17528
C 0.43859 6.57577 6.69176
C 3.68763 5.945 1.56944
H 2.69824 6.32683 1.80071
C 1.22745 6.06471 5.65205
C 4.46338 6.45777 0.52027
C 5.3126 1.24381 4.79419
C 2.0502 11.2675 9.92158
C 0.73548 4.94016 4.83586
C 3.73174 7.56629 9.95688
Ni 9.15137 9.41116 8.59265
Ni 12.4281 3.10579 3.48481
O 7.70109 4.35425 3.93374
O 10.6944 8.15245 9.05464
O 10.8895 1.84729 3.87523
O 7.61779 10.6744 9.00295
O 12.0589 4.46033 4.96242
O 8.79524 8.0327 10.0675
O 6.50397 1.69264 4.94273
O 9.49002 10.8047 10.0626
N 9.94957 10.6606 7.2416
N 6.96536 1.8642 2.11704
N 8.42499 8.14409 7.25198
N 11.693 4.39481 2.13747
C 9.73826 12.1483 5.36301
C 6.72768 0.38955 0.2292
C 11.0135 0.1474 5.61481
C 7.99613 12.3699 0.47412
C 11.7562 12.1502 6.68209
C 8.75132 0.35508 1.54004
H 9.74435 12.5067 1.77336
C 8.73644 6.6337 5.40822
C 11.9808 5.90364 0.28669
H 9.38574 6.27291 4.61605
C 9.18036 7.68099 6.23068
C 12.4411 4.86756 1.11596
H 10.1527 8.14655 6.0889
H 7.16869 4.41889 0.97634
C 9.23536 11.1359 6.19748
C 6.24244 1.40553 1.07106
H 8.24672 10.709 6.04703
H 11.5137 1.85011 0.92351
C 11.1892 11.1381 7.47507
C 8.20102 1.3719 2.3406
H 11.7384 10.7097 8.30944
H 8.76167 1.79214 3.17267
C 7.19853 7.62654 7.47302
C 10.4636 4.90458 2.35686
H 6.61608 8.05184 8.28732
H 9.88885 4.47744 3.17528
C 6.69139 6.57577 6.69176
C 9.94043 5.945 1.56944
C 7.48025 6.06471 5.65205
C 10.7162 6.45777 0.52027
C 11.5654 1.24381 4.79419
C 8.303 11.2675 9.92158
C 6.98827 4.94016 4.83586
C 9.98454 7.56629 9.95688
C 6.91339 0.11071 7.02937
C 7.66807 12.1687 8.03949
H 7.38058 0.88026 6.45137
H 7.35298 11.3938 8.72039
H 8.65832 0.06268 8.19523
C 11.8593 12.4475 9.34906
C 10.6369 0.40759 9.0688
H 12.1897 11.6778 8.68355
H 10.1512 1.18534 9.63674
H 10.0897 0.00281 8.22284
C 11.5486 6.04041 7.0179
C 10.7534 6.4933 8.00229
H 11.1261 5.24142 6.44545
H 11.0215 7.29325 8.67432
H 9.77785 6.03837 8.14518
C 6.41845 6.37961 9.42882
C 7.6394 5.88662 9.15913
H 6.10795 7.1653 8.77244
H 8.10678 5.09285 9.7203
H 8.20495 6.30013 8.32956
C 8.85544 0.11023 4.20828
C 7.62779 12.1685 3.92014
H 9.19857 0.88007 3.54934
H 7.12955 11.3934 4.48079
H 7.0892 0.06299 3.07496
C 5.60635 12.4473 9.34932
C 4.3849 0.40885 9.0677
H 5.93571 11.6759 8.6852
H 3.90019 1.18842 9.63409
H 3.83735 0.00363 8.22212
C 5.29579 6.04041 7.0179
C 4.50058 6.4933 8.00229
H 4.87333 5.24142 6.44545
H 4.76868 7.29325 8.67432
H 3.52505 6.03837 8.14518
C 8.5407 6.46717 1.9012
C 7.757 6.01292 2.89415
H 8.10565 7.25712 1.32563
H 8.03835 5.22104 3.57032
H 6.77743 6.45807 3.0401
140
Atoms. Timestep: 139
Ni 2.69424 9.34031 8.6388
Ni 6.04316 3.14434 3.6953
O 1.21716 4.08178 3.74131
O 4.16528 8.2784 8.83342
O 4.53383 2.1596 3.84878
O 1.21631 10.3924 8.79772
O 5.61878 4.32488 4.9769
O 2.22589 8.11433 9.90213
O 0.189037 1.81158 4.78357
O 3.08751 10.4796 9.96293
N 3.49204 10.6294 7.27716
N 0.53522 1.8394 2.13427
N 1.95713 8.13286 7.21637
N 5.31723 4.39657 2.31595
C 3.39685 12.0658 5.2743
C 0.437357 0.572939 0.0169051
H 2.95615 12.2186 4.31416
C 4.58202 0.247777 5.63269
C 1.49625 12.2167 0.428717
C 5.15752 12.414 6.84795
C 2.10692 12.5384 1.65838
H 0.300055 12.013 6.25546
H 2.95304 11.9563 1.99809
C 1.95606 6.91847 5.06943
C 5.60161 5.82015 0.324728
H 2.33507 6.83996 4.0644
H -0.071516 6.35956 9.96601
C 2.44693 7.97745 5.93583
C 6.02347 4.7394 1.19967
H 3.23484 8.6189 5.57992
H 0.832908 4.37591 0.995432
C 2.80971 11.0829 6.16708
C 12.4077 1.5551 0.95008
H 1.89089 10.6011 5.87902
H 5.25092 0.436506 2.52706
C 4.74903 11.1751 7.48361
C 1.68753 1.15448 2.42351
H 5.46529 10.6231 8.04123
H 2.26011 1.45462 3.28002
C 0.864386 7.38252 7.55305
C 4.09503 5.00622 2.51579
H 0.296633 7.67244 8.40547
H 3.53787 4.77321 3.40617
C 0.510003 6.19595 6.84025
C 3.55834 5.97704 1.59081
H 2.5638 6.37057 1.75828
C 1.01425 5.96433 5.54694
C 4.31336 6.4497 0.491069
C 5.18309 1.45304 4.81125
C 1.85775 11.0372 9.80296
C 0.498166 4.75306 4.68381
C 3.47619 7.57292 9.78103
Ni 9.18704 9.4807 8.78164
Ni 12.2653 3.03469 3.52554
O 7.54232 4.14842 3.88336
O 10.6691 8.45938 9.01847
O 10.7932 1.9693 3.63117
O 7.70045 10.5226 8.92917
O 11.7754 4.18232 4.81869
O 8.74221 8.35815 10.1153
O 6.45257 1.93886 4.96435
O 9.62097 10.7485 10.021
N 9.88935 10.6317 7.32299
N 6.78242 1.89478 2.30262
N 8.49215 8.17366 7.4122
N 11.5657 4.31462 2.17111
C 9.54641 12.1049 5.38486
C 6.5994 12.3925 0.982946
C 10.9061 12.5322 5.40153
C 7.94848 12.4036 0.540617
C 11.7595 11.7748 6.22862
C 8.69757 0.98852 1.01097
H 9.75195 1.02203 0.835809
C 8.8584 6.26556 5.87759
C 11.9651 5.95528 0.385617
H 9.56701 5.62179 5.38217
C 9.34902 7.36377 6.68459
C 12.3668 4.816 1.16966
H 10.4119 7.5449 6.72369
H 7.00203 4.316 1.06945
C 9.04913 11.2248 6.41835
C 6.19642 0.675912 2.07857
H 8.00868 10.9241 6.39646
H 11.5925 2.18802 0.640344
C 11.2364 10.7651 7.10961
C 8.06535 2.04354 1.79092
H 11.8966 10.0354 7.52033
H 8.64572 2.90833 2.0552
C 7.14046 8.02282 7.18907
C 10.3984 4.99365 2.45454
H 6.45499 8.69332 7.66835
H 9.82071 4.67914 3.30052
C 6.61368 6.9083 6.4288
C 10.0706 6.24612 1.823
C 7.46892 6.02148 5.73462
C 10.7538 6.64324 0.649502
C 11.4644 1.258 4.58813
C 8.36384 11.2569 9.87907
C 6.88052 4.82658 4.86021
C 9.98717 7.82843 10.0188
C 5.72515 1.00682 7.64701
C 7.01869 1.09493 7.93384
H 5.09407 1.8716 7.84454
H 7.67942 0.283422 7.73507
H 7.40264 1.97889 8.432
C -0.0479358 0.776105 8.85488
C 11.2637 1.20765 8.42424
H 0.801787 0.819234 8.18008
H 10.3808 1.11804 9.03996
H 11.1799 1.69683 7.46129
C 12.2761 5.13949 7.54035
C 0.432957 4.1717 8.17416
H 11.2014 5.22836 7.66629
H 1.51117 4.08052 8.07543
H -0.089554 3.53924 8.87504
C 6.397 6.4099 9.7325
C 7.34245 5.62847 9.17875
H 6.50978 7.48291 9.72522
H 7.19887 4.55536 9.0972
H 8.26868 6.04929 8.82825
C 8.79727 12.1406 4.13827
C 8.52284 10.9933 3.50439
H 8.26933 0.51439 3.88473
H 9.03379 10.0795 3.78455
H 7.69723 10.9288 2.81671
C 5.55746 12.0412 0.0785949
C 4.37706 0.427503 10.0451
H 5.26885 11.0194 10.049
H 4.6543 1.44215 0.160117
H 3.65101 0.235446 9.27597
C 5.17071 6.72293 6.31147
C 4.53038 5.82854 7.07936
H 4.72653 7.01395 5.37337
H 5.06594 5.22978 7.7996
H 3.5061 5.55994 6.8641
C 9.39937 7.28109 2.63411
C 8.07308 7.31853 2.7496
H 10.0033 8.0085 3.16597
H 7.46151 6.59598 2.24362
H 7.59891 8.067 3.378
140
Atoms. Timestep: 147
Ni 2.69626 9.34005 8.64063
Ni 6.046 3.14787 3.6947
O 1.21523 4.08036 3.74434
O 4.17 8.28015 8.83643
O 4.5363 2.16407 3.84862
O 1.21657 10.3898 8.7989
O 5.62107 4.32883 4.97421
O 2.22979 8.11378 9.90338
O 0.184371 1.81175 4.78734
O 3.08651 10.4786 9.96482
N 3.49228 10.6313 7.27902
N 0.530118 1.83547 2.13613
N 1.96115 8.13235 7.21793
N 5.32087 4.39679 2.31728
C 3.39282 12.0694 5.27783
C 0.440912 0.574008 0.0150909
H 2.94736 12.2214 4.31886
C 4.58199 0.249074 5.63217
C 1.49578 12.2148 0.429315
C 5.15892 12.414 6.84622
C 2.10258 0.00989851 1.66191
H 0.295976 12.0097 6.25201
H 2.95607 11.9594 1.99677
C 1.95606 6.92246 5.06845
C 5.60306 5.81718 0.325538
H 2.33782 6.8441 4.06459
H -0.0716719 6.3573 9.96858
C 2.45125 7.97804 5.93721
C 6.0271 4.73989 1.20267
H 3.23509 8.62369 5.57901
H 0.836974 4.38132 1.00449
C 2.80789 11.0862 6.1712
C 12.4082 1.5557 0.947604
H 1.88979 10.6017 5.88207
H 5.24676 0.446366 2.5217
C 4.74943 11.1761 7.4827
C 1.68063 1.14787 2.4277
H 5.4648 10.6253 8.04223
H 2.25697 1.45225 3.27908
C 0.866249 7.38411 7.55453
C 4.09744 5.00201 2.51551
H 0.304033 7.66951 8.41224
H 3.5411 4.76906 3.40789
C 0.506484 6.20079 6.84008
C 3.56063 5.97398 1.59187
H 2.5691 6.3711 1.76272
C 1.01062 5.96885 5.54514
C 4.31472 6.44518 0.491198
C 5.18375 1.45692 4.8109
C 1.85647 11.0335 9.8059
C 0.496434 4.75266 4.68608
C 3.48073 7.57486 9.78515
Ni 9.18222 9.47856 8.78324
Ni 12.2619 3.03345 3.5285
O 7.54505 4.15168 3.8814
O 10.6639 8.45525 9.01868
O 10.7877 1.97041 3.63604
O 7.69761 10.5216 8.92938
O 11.773 4.1826 4.82088
O 8.73613 8.35316 10.1147
O 6.45437 1.94314 4.96405
O 9.61561 10.7445 10.0261
N 9.88814 10.6302 7.32497
N 6.78483 1.8981 2.30205
N 8.48751 8.1743 7.41091
N 11.5641 4.31348 2.17348
C 9.5441 12.1072 5.3889
C 6.59592 12.3975 0.979251
C 10.9013 0.0117989 5.40794
C 7.94573 12.4067 0.53593
C 11.7559 11.7724 6.22801
C 8.69701 0.991153 1.00543
H 9.74971 1.02578 0.824061
C 8.85819 6.26915 5.87423
C 11.9625 5.9526 0.387833
H 9.56801 5.61924 5.38747
C 9.34576 7.36411 6.68546
C 12.3679 4.81956 1.17716
H 10.409 7.54585 6.72483
H 7.00838 4.32076 1.07662
C 9.04708 11.2233 6.41899
C 6.19336 0.68288 2.07399
H 8.00583 10.9274 6.39812
H 11.5931 2.18783 0.636067
C 11.2346 10.7594 7.10641
C 8.06919 2.04508 1.78973
H 11.8964 10.0265 7.51217
H 8.6536 2.90638 2.05534
C 7.1357 8.02286 7.1839
C 10.3953 4.99001 2.4535
H 6.44598 8.68898 7.6666
H 9.81807 4.67876 3.30424
C 6.61322 6.90788 6.42498
C 10.0681 6.24051 1.82121
C 7.46935 6.02428 5.73056
C 10.7494 6.63734 0.649039
C 11.4582 1.26073 4.59538
C 8.3595 11.2542 9.88225
C 6.88241 4.8313 4.85558
C 9.98176 7.82309 10.0182
C 5.72714 1.00619 7.64663
C 7.02144 1.09529 7.9322
H 5.09711 1.87139 7.84003
H 7.6842 0.290404 7.71842
H 7.40598 1.97976 8.42903
C -0.0483087 0.773104 8.8537
C 11.2633 1.20921 8.42857
H 0.797096 0.803575 8.17162
H 10.381 1.11024 9.04376
H 11.1772 1.69916 7.46781
C 12.2749 5.14435 7.54386
C 0.435055 4.17617 8.17476
H 11.2006 5.23302 7.67685
H 1.51277 4.08687 8.0753
H -0.085306 3.53704 8.87129
C 6.39654 6.40764 9.73482
C 7.34399 5.62782 9.18303
H 6.50428 7.48156 9.7265
H 7.20099 4.55412 9.09596
H 8.26526 6.05062 8.82534
C 8.80148 12.1403 4.1387
C 8.53543 10.9932 3.50384
H 8.2674 0.509694 3.88524
H 9.04753 10.081 3.78822
H 7.71483 10.9277 2.80947
C 5.5535 12.0391 0.0782419
C 4.37225 0.424252 10.0398
H 5.26719 11.0134 10.0544
H 4.64966 1.4413 0.147558
H 3.64471 0.230243 9.26983
C 5.17183 6.72145 6.30593
C 4.53229 5.82855 7.07697
H 4.72714 7.01606 5.36848
H 5.07142 5.23052 7.79571
H 3.50818 5.56003 6.86453
C 9.40396 7.27722 2.63372
C 8.07819 7.32468 2.74372
H 10.0113 8.00627 3.15896
H 7.46391 6.59475 2.24969
H 7.61081 8.07204 3.37397
140
Atoms. Timestep: 152
Ni 2.69603 9.33976 8.64107
Ni 6.04566 3.14674 3.69468
O 1.21512 4.08058 3.744
O 4.16903 8.27971 8.83631
O 4.53638 2.16286 3.84914
O 1.21609 10.39 8.7994
O 5.62085 4.32785 4.9737
O 2.22902 8.11257 9.90359
O 0.184342 1.81274 4.78872
O 3.08614 10.4786 9.96557
N 3.49263 10.6311 7.27881
N 0.530244 1.83529 2.13751
N 1.96138 8.13218 7.21947
N 5.32045 4.39681 2.31682
C 3.39327 12.0707 5.2783
C 0.439824 0.573167 0.0157912
H 2.94839 12.2236 4.32044
C 4.58193 0.249743 5.63213
C 1.4953 12.2142 0.429903
C 5.15917 12.415 6.84594
C 2.10298 0.01052 1.66186
H 0.296761 12.0083 6.2517
H 2.95526 11.9586 1.99671
C 1.95623 6.92179 5.07
C 5.60347 5.81723 0.325712
H 2.33654 6.84274 4.06422
H -0.0727216 6.35782 9.96902
C 2.44928 7.97945 5.93777
C 6.02768 4.74013 1.20257
H 3.235 8.62267 5.57933
H 0.837449 4.38189 1.00743
C 2.80805 11.0866 6.17146
C 12.4082 1.55555 0.948558
H 1.88968 10.6021 5.88346
H 5.2462 0.448368 2.51972
C 4.75013 11.1757 7.4823
C 1.68077 1.14794 2.42852
H 5.46582 10.6247 8.04381
H 2.25668 1.45263 3.28104
C 0.865904 7.3847 7.55555
C 4.0974 5.00271 2.51541
H 0.305147 7.6709 8.4124
H 3.54077 4.76905 3.40672
C 0.506283 6.20055 6.84108
C 3.56063 5.97428 1.59189
H 2.56884 6.37137 1.76321
C 1.0112 5.96817 5.54683
C 4.31527 6.4462 0.491967
C 5.184 1.45589 4.81129
C 1.85594 11.0343 9.80589
C 0.49626 4.75372 4.68548
C 3.48044 7.57376 9.78486
Ni 9.18205 9.47781 8.78279
Ni 12.262 3.03392 3.529
O 7.5454 4.1516 3.88164
O 10.6647 8.45582 9.01825
O 10.7878 1.97017 3.63683
O 7.69611 10.5215 8.92969
O 11.7728 4.18399 4.82064
O 8.73711 8.35396 10.1146
O 6.45428 1.94148 4.96386
O 9.61486 10.7428 10.0246
N 9.88738 10.6289 7.32431
N 6.78473 1.89768 2.30114
N 8.48808 8.17398 7.41104
N 11.5643 4.31275 2.1738
C 9.54304 12.108 5.39009
C 6.5949 12.3972 0.978984
C 10.9018 0.0109238 5.4077
C 7.94518 12.4063 0.536111
C 11.756 11.7728 6.2291
C 8.69678 0.990623 1.00527
H 9.74909 1.02572 0.822638
C 8.85817 6.26809 5.87566
C 11.9625 5.95268 0.388487
H 9.568 5.61964 5.38763
C 9.34594 7.36564 6.68393
C 12.3674 4.81726 1.17644
H 10.4091 7.54639 6.72568
H 7.00997 4.32242 1.07673
C 9.04634 11.2237 6.42038
C 6.19262 0.68255 2.07316
H 8.00517 10.9258 6.39909
H 11.5942 2.18948 0.637475
C 11.2338 10.7599 7.10759
C 8.06852 2.04392 1.78991
H 11.894 10.0258 7.51111
H 8.65278 2.90648 2.05654
C 7.1365 8.02236 7.18557
C 10.3958 4.98912 2.45387
H 6.44866 8.69018 7.66695
H 9.81915 4.67799 3.30354
C 6.61326 6.90948 6.42322
C 10.0673 6.24015 1.82091
C 7.46903 6.02509 5.72931
C 10.7486 6.6361 0.647967
C 11.459 1.26042 4.59532
C 8.35922 11.2545 9.88042
C 6.88244 4.83005 4.85643
C 9.98157 7.82242 10.0166
C 5.72728 1.00668 7.64619
C 7.0218 1.09623 7.93025
H 5.09766 1.87165 7.84082
H 7.6853 0.291355 7.7174
H 7.40595 1.97979 8.4285
C -0.0490687 0.771391 8.85363
C 11.2623 1.20666 8.42701
H 0.796367 0.801613 8.17279
H 10.3808 1.11005 9.0429
H 11.1766 1.70003 7.4673
C 12.275 5.14374 7.54348
C 0.435401 4.1762 8.17421
H 11.2023 5.23495 7.67732
H 1.51373 4.08857 8.07463
H -0.0847042 3.53822 8.87076
C 6.39693 6.40745 9.73364
C 7.3434 5.62809 9.18051
H 6.50574 7.48157 9.72492
H 7.20126 4.55486 9.09726
H 8.26614 6.05105 8.82448
C 8.79953 12.14 4.13997
C 8.53755 10.9928 3.50238
H 8.26688 0.510176 3.88504
H 9.05003 10.081 3.78758
H 7.71847 10.9261 2.80624
C 5.55294 12.0401 0.0776788
C 4.37191 0.424103 10.039
H 5.26651 11.0149 10.0548
H 4.64941 1.44084 0.14599
H 3.64589 0.227515 9.26955
C 5.17124 6.72261 6.30595
C 4.53253 5.82838 7.07623
H 4.72541 7.01452 5.36816
H 5.07113 5.23051 7.79485
H 3.5078 5.5602 6.86391
C 9.40369 7.2781 2.63303
C 8.07796 7.32456 2.74657
H 10.0128 8.00589 3.15809
H 7.46409 6.59636 2.25079
H 7.61031 8.07504 3.37328
140
Atoms. Timestep: 154
Ni 2.69583 9.3398 8.64109
Ni 6.04535 3.14687 3.69471
O 1.21509 4.08074 3.74408
O 4.16907 8.27977 8.83631
O 4.53648 2.16281 3.84914
O 1.21607 10.39 8.79937
O 5.62091 4.32781 4.97384
O 2.229 8.11274 9.90358
O 0.184308 1.81272 4.78872
O 3.08606 10.4786 9.96554
N 3.49269 10.631 7.279
N 0.530235 1.83519 2.13733
N 1.96134 8.13223 7.21931
N 5.32083 4.39665 2.31672
C 3.39309 12.0707 5.27824
C 0.439794 0.57311 0.0157979
H 2.94837 12.2237 4.32049
C 4.58213 0.249779 5.63233
C 1.49519 12.2143 0.429946
C 5.15917 12.4148 6.84601
C 2.10301 0.0105081 1.66192
H 0.29669 12.0082 6.2517
H 2.95527 11.9585 1.99677
C 1.95609 6.92169 5.07003
C 5.60365 5.81747 0.325456
H 2.33651 6.84278 4.06437
H -0.0727536 6.35777 9.96912
C 2.44936 7.9794 5.9377
C 6.02753 4.74018 1.20272
H 3.23496 8.6227 5.57942
H 0.837455 4.38194 1.00755
C 2.80796 11.0866 6.17149
C 12.4082 1.55571 0.948765
H 1.88975 10.6022 5.88346
H 5.24593 0.448336 2.51965
C 4.75036 11.1757 7.48242
C 1.68067 1.14804 2.4286
H 5.4657 10.6248 8.04373
H 2.25668 1.45255 3.28106
C 0.865994 7.38456 7.55545
C 4.09732 5.00276 2.51537
H 0.305026 7.67093 8.41257
H 3.54074 4.76901 3.40674
C 0.506383 6.20062 6.84099
C 3.56061 5.97431 1.59197
H 2.56891 6.37138 1.76318
C 1.01137 5.96828 5.54679
C 4.31527 6.4462 0.491947
C 5.18395 1.45597 4.81107
C 1.85611 11.0342 9.80595
C 0.496143 4.75364 4.68548
C 3.48053 7.57355 9.78498
Ni 9.18221 9.47794 8.78291
Ni 12.2622 3.03374 3.52919
O 7.54536 4.15149 3.88163
O 10.6646 8.45561 9.01828
O 10.7878 1.97025 3.63682
O 7.69616 10.5213 8.92944
O 11.7727 4.18405 4.82065
O 8.73699 8.35375 10.1145
O 6.45433 1.94148 4.96381
O 9.61488 10.743 10.0245
N 9.88725 10.629 7.32446
N 6.78468 1.89743 2.30113
N 8.48792 8.17402 7.41111
N 11.5643 4.31254 2.17385
C 9.54307 12.1079 5.39024
C 6.59503 12.3974 0.979118
C 10.9017 0.0109649 5.40772
C 7.94506 12.4062 0.53604
C 11.7559 11.7728 6.22907
C 8.69668 0.990517 1.00524
H 9.74911 1.02576 0.822561
C 8.85817 6.26815 5.87563
C 11.9627 5.9526 0.3883
H 9.568 5.61962 5.38765
C 9.34608 7.36558 6.68391
C 12.3675 4.81738 1.17631
H 10.4091 7.54638 6.72563
H 7.01001 4.3225 1.0768
C 9.04624 11.2238 6.42018
C 6.19286 0.68283 2.07309
H 8.00518 10.9258 6.39913
H 11.5942 2.18947 0.637407
C 11.2339 10.7599 7.10762
C 8.06846 2.04403 1.78999
H 11.8941 10.0257 7.5111
H 8.65281 2.90637 2.05653
C 7.13657 8.02239 7.18549
C 10.3955 4.98927 2.45389
H 6.44864 8.6902 7.66697
H 9.81915 4.67795 3.30356
C 6.61303 6.90955 6.42322
C 10.0672 6.24007 1.82109
C 7.46911 6.02504 5.7293
C 10.7485 6.63623 0.647833
C 11.459 1.26044 4.59538
C 8.35919 11.2546 9.88058
C 6.88254 4.83006 4.85637
C 9.98169 7.82245 10.0166
C 5.72733 1.00677 7.64624
C 7.02187 1.09617 7.93013
H 5.09765 1.87164 7.84084
H 7.68529 0.291459 7.71733
H 7.40598 1.97989 8.4285
C -0.0491748 0.77135 8.85376
C 11.2623 1.20665 8.42699
H 0.796366 0.801499 8.17277
H 10.3807 1.11002 9.04288
H 11.1767 1.7 7.46736
C 12.275 5.14392 7.54354
C 0.435413 4.17622 8.17417
H 11.2023 5.23496 7.67744
H 1.51377 4.08861 8.07463
H -0.084636 3.53821 8.87077
C 6.39679 6.40739 9.7337
C 7.34351 5.62817 9.18042
H 6.50578 7.48162 9.72486
H 7.20131 4.55478 9.09727
H 8.26609 6.05098 8.82444
C 8.7995 12.14 4.13997
C 8.53765 10.9927 3.50235
H 8.26683 0.510124 3.88502
H 9.05022 10.081 3.78756
H 7.71876 10.926 2.80606
C 5.55305 12.0398 0.0775616
C 4.37183 0.424174 10.0389
H 5.26645 11.0149 10.0548
H 4.64936 1.44088 0.145884
H 3.64588 0.227474 9.2695
C 5.17116 6.72253 6.30592
C 4.53262 5.82846 7.07621
H 4.72538 7.01453 5.36807
H 5.07115 5.23051 7.79479
H 3.50778 5.56019 6.86389
C 9.40378 7.27799 2.63296
C 8.07814 7.32447 2.74653
H 10.0129 8.00595 3.15808
H 7.46398 6.59646 2.2509
H 7.61032 8.07524 3.3733
140
Atoms. Timestep: 156
Ni 2.69584 9.3398 8.64109
Ni 6.04538 3.14684 3.6947
O 1.21509 4.08074 3.74409
O 4.16907 8.27977 8.83632
O 4.53647 2.16283 3.84913
O 1.21607 10.39 8.79937
O 5.62091 4.32781 4.97385
O 2.229 8.11275 9.90359
O 0.184312 1.81271 4.78873
O 3.08606 10.4786 9.96555
N 3.49269 10.631 7.27901
N 0.530238 1.83521 2.13736
N 1.96133 8.13223 7.2193
N 5.3208 4.39667 2.31674
C 3.39309 12.0707 5.27826
C 0.439778 0.573116 0.0158152
H 2.94836 12.2237 4.32049
C 4.58211 0.24977 5.63233
C 1.49519 12.2143 0.429953
C 5.15919 12.4148 6.84602
C 2.10301 0.0105192 1.66193
H 0.296679 12.0082 6.2517
H 2.95527 11.9585 1.99677
C 1.95609 6.9217 5.07002
C 5.60363 5.81748 0.325471
H 2.3365 6.84278 4.06439
H -0.0727496 6.35776 9.96913
C 2.44936 7.97939 5.9377
C 6.02757 4.74018 1.2027
H 3.23496 8.62271 5.57943
H 0.83746 4.38195 1.00756
C 2.80796 11.0866 6.17149
C 12.4082 1.5557 0.948754
H 1.88976 10.6022 5.88346
H 5.24591 0.44834 2.51963
C 4.75036 11.1757 7.48242
C 1.68067 1.14803 2.42859
H 5.4657 10.6248 8.04372
H 2.25668 1.45255 3.28106
C 0.866003 7.38456 7.55545
C 4.09734 5.00275 2.51537
H 0.305015 7.67093 8.41259
H 3.54073 4.76901 3.40674
C 0.506396 6.20063 6.84098
C 3.56061 5.97432 1.59198
H 2.56891 6.37138 1.76318
C 1.01136 5.96827 5.54679
C 4.31528 6.4462 0.491935
C 5.18397 1.45597 4.81108
C 1.8561 11.0342 9.80595
C 0.496148 4.75366 4.68549
C 3.48052 7.57355 9.78497
Ni 9.18218 9.47793 8.78289
Ni 12.2622 3.03375 3.52917
O 7.54535 4.15148 3.88163
O 10.6646 8.4556 9.01828
O 10.7878 1.97025 3.63683
O 7.69618 10.5213 8.92944
O 11.7727 4.18404 4.82066
O 8.73699 8.35373 10.1145
O 6.45432 1.94149 4.9638
O 9.61489 10.743 10.0245
N 9.88726 10.629 7.32447
N 6.78469 1.89746 2.30114
N 8.48795 8.17401 7.41111
N 11.5643 4.31255 2.17384
C 9.54306 12.1079 5.39024
C 6.59505 12.3974 0.979109
C 10.9017 0.0109615 5.40774
C 7.94505 12.4062 0.536046
C 11.7559 11.7728 6.22907
C 8.69668 0.990515 1.00524
H 9.74911 1.02577 0.82255
C 8.85819 6.26815 5.87562
C 11.9627 5.9526 0.388282
H 9.568 5.61962 5.38766
C 9.34606 7.36558 6.68392
C 12.3675 4.81737 1.17632
H 10.4091 7.54637 6.72563
H 7.01001 4.32252 1.07681
C 9.04623 11.2237 6.42019
C 6.19285 0.682827 2.07308
H 8.00517 10.9258 6.39912
H 11.5942 2.18948 0.637406
C 11.2338 10.7599 7.10762
C 8.06845 2.04401 1.78999
H 11.8941 10.0257 7.5111
H 8.65281 2.90637 2.05653
C 7.13655 8.0224 7.18549
C 10.3955 4.98925 2.4539
H 6.44864 8.6902 7.66697
H 9.81914 4.67796 3.30356
C 6.61304 6.90955 6.42322
C 10.0672 6.24008 1.82109
C 7.4691 6.02504 5.7293
C 10.7485 6.63622 0.647824
C 11.4589 1.26045 4.59539
C 8.35918 11.2546 9.88057
C 6.88254 4.83006 4.85637
C 9.98168 7.82245 10.0167
C 5.72734 1.00676 7.64624
C 7.02188 1.09618 7.93012
H 5.09765 1.87164 7.84085
H 7.68529 0.291468 7.71732
H 7.40598 1.9799 8.42849
C -0.0491797 0.771343 8.85377
C 11.2623 1.20665 8.427
H 0.796362 0.801481 8.17277
H 10.3807 1.11001 9.04288
H 11.1767 1.69999 7.46737
C 12.275 5.14393 7.54354
C 0.435415 4.17622 8.17416
H 11.2023 5.23496 7.67746
H 1.51378 4.08861 8.07464
H -0.0846266 3.53821 8.87077
C 6.3968 6.40741 9.73369
C 7.3435 5.62817 9.18041
H 6.50578 7.48162 9.72485
H 7.20132 4.55478 9.09727
H 8.26609 6.05098 8.82443
C 8.7995 12.14 4.13998
C 8.53767 10.9927 3.50235
H 8.26682 0.510119 3.88501
H 9.05025 10.081 3.78756
H 7.7188 10.926 2.80603
C 5.55305 12.0398 0.0775624
C 4.37182 0.424161 10.0389
H 5.26645 11.0149 10.0548
H 4.64936 1.44089 0.145869
H 3.64587 0.227471 9.26949
C 5.17115 6.72253 6.30591
C 4.53262 5.82847 7.07621
H 4.72537 7.01453 5.36806
H 5.07115 5.23051 7.79479
H 3.50778 5.56019 6.86389
C 9.40379 7.27798 2.63296
C 8.07815 7.32447 2.74653
H 10.0129 8.00596 3.15808
H 7.46397 6.59647 2.25091
H 7.61032 8.07527 3.3733
140
Atoms. Timestep: 157
Ni 2.69584 9.3398 8.64109
Ni 6.04538 3.14684 3.6947
O 1.21509 4.08074 3.74409
O 4.16907 8.27977 8.83632
O 4.53647 2.16283 3.84913
O 1.21607 10.39 8.79937
O 5.62091 4.32781 4.97385
O 2.229 8.11275 9.90359
O 0.184312 1.81271 4.78873
O 3.08606 10.4786 9.96555
N 3.49269 10.631 7.27901
N 0.530238 1.83521 2.13736
N 1.96133 8.13223 7.2193
N 5.3208 4.39667 2.31674
C 3.39309 12.0707 5.27826
C 0.439778 0.573116 0.0158152
H 2.94836 12.2237 4.32049
C 4.58211 0.24977 5.63233
C 1.49519 12.2143 0.429953
C 5.15919 12.4148 6.84602
C 2.10301 0.0105192 1.66193
H 0.296679 12.0082 6.2517
H 2.95527 11.9585 1.99677
C 1.95609 6.9217 5.07002
C 5.60363 5.81748 0.325471
H 2.3365 6.84278 4.06439
H -0.0727496 6.35776 9.96913
C 2.44936 7.97939 5.9377
C 6.02757 4.74018 1.2027
H 3.23496 8.62271 5.57943
H 0.83746 4.38195 1.00756
C 2.80796 11.0866 6.17149
C 12.4082 1.5557 0.948754
H 1.88976 10.6022 5.88346
H 5.24591 0.44834 2.51963
C 4.75036 11.1757 7.48242
C 1.68067 1.14803 2.42859
H 5.4657 10.6248 8.04372
H 2.25668 1.45255 3.28106
C 0.866003 7.38456 7.55545
C 4.09734 5.00275 2.51537
H 0.305015 7.67093 8.41259
H 3.54073 4.76901 3.40674
C 0.506396 6.20063 6.84098
C 3.56061 5.97432 1.59198
H 2.56891 6.37138 1.76318
C 1.01136 5.96827 5.54679
C 4.31528 6.4462 0.491935
C 5.18397 1.45597 4.81108
C 1.8561 11.0342 9.80595
C 0.496148 4.75366 4.68549
C 3.48052 7.57355 9.78497
Ni 9.18218 9.47793 8.78289
Ni 12.2622 3.03375 3.52917
O 7.54535 4.15148 3.88163
O 10.6646 8.4556 9.01828
O 10.7878 1.97025 3.63683
O 7.69618 10.5213 8.92944
O 11.7727 4.18404 4.82066
O 8.73699 8.35373 10.1145
O 6.45432 1.94149 4.9638
O 9.61489 10.743 10.0245
N 9.88726 10.629 7.32447
N 6.78469 1.89746 2.30114
N 8.48795 8.17401 7.41111
N 11.5643 4.31255 2.17384
C 9.54306 12.1079 5.39024
C 6.59505 12.3974 0.979109
C 10.9017 0.0109615 5.40774
C 7.94505 12.4062 0.536046
C 11.7559 11.7728 6.22907
C 8.69668 0.990515 1.00524
H 9.74911 1.02577 0.82255
C 8.85819 6.26815 5.87562
C 11.9627 5.9526 0.388282
H 9.568 5.61962 5.38766
C 9.34606 7.36558 6.68392
C 12.3675 4.81737 1.17632
H 10.4091 7.54637 6.72563
H 7.01001 4.32252 1.07681
C 9.04623 11.2237 6.42019
C 6.19285 0.682827 2.07308
H 8.00517 10.9258 6.39912
H 11.5942 2.18948 0.637406
C 11.2338 10.7599 7.10762
C 8.06845 2.04401 1.78999
H 11.8941 10.0257 7.5111
H 8.65281 2.90637 2.05653
C 7.13655 8.0224 7.18549
C 10.3955 4.98925 2.4539
H 6.44864 8.6902 7.66697
H 9.81914 4.67796 3.30356
C 6.61304 6.90955 6.42322
C 10.0672 6.24008 1.82109
C 7.4691 6.02504 5.7293
C 10.7485 6.63622 0.647824
C 11.4589 1.26045 4.59539
C 8.35918 11.2546 9.88057
C 6.88254 4.83006 4.85637
C 9.98168 7.82245 10.0167
C 5.72734 1.00676 7.64624
C 7.02188 1.09618 7.93012
H 5.09765 1.87164 7.84085
H 7.68529 0.291468 7.71732
H 7.40598 1.9799 8.42849
C -0.0491797 0.771343 8.85377
C 11.2623 1.20665 8.427
H 0.796362 0.801481 8.17277
H 10.3807 1.11001 9.04288
H 11.1767 1.69999 7.46737
C 12.275 5.14393 7.54354
C 0.435415 4.17622 8.17416
H 11.2023 5.23496 7.67746
H 1.51378 4.08861 8.07464
H -0.0846266 3.53821 8.87077
C 6.3968 6.40741 9.73369
C 7.3435 5.62817 9.18041
H 6.50578 7.48162 9.72485
H 7.20132 4.55478 9.09727
H 8.26609 6.05098 8.82443
C 8.7995 12.14 4.13998
C 8.53767 10.9927 3.50235
H 8.26682 0.510119 3.88501
H 9.05025 10.081 3.78756
H 7.7188 10.926 2.80603
C 5.55305 12.0398 0.0775624
C 4.37182 0.424161 10.0389
H 5.26645 11.0149 10.0548
H 4.64936 1.44089 0.145869
H 3.64587 0.227471 9.26949
C 5.17115 6.72253 6.30591
C 4.53262 5.82847 7.07621
H 4.72537 7.01453 5.36806
H 5.07115 5.23051 7.79479
H 3.50778 5.56019 6.86389
C 9.40379 7.27798 2.63296
C 8.07815 7.32447 2.74653
H 10.0129 8.00596 3.15808
H 7.46397 6.59647 2.25091
H 7.61032 8.07527 3.3733
