140
Atoms. Timestep: 0
Ni 2.89857 9.41116 8.59265
Ni 6.17525 3.10579 3.48481
O 1.44827 4.35425 3.93374
O 4.4416 8.15245 9.05464
O 4.63665 1.84729 3.87523
O 1.36499 10.6744 9.00295
O 5.80609 4.46033 4.96242
O 2.54244 8.0327 10.0675
O 0.25117 1.69264 4.94273
O 3.23722 10.8047 10.0626
N 3.69677 10.6606 7.2416
N 0.71256 1.8642 2.11704
N 2.17217 8.14409 7.25198
N 5.44023 4.39481 2.13747
C 3.48546 12.1483 5.36301
C 0.47488 0.38955 0.2292
H 2.86453 12.5181 4.55267
H 5.86971 0.03371 9.69377
C 4.76073 0.1474 5.61481
C 1.74333 12.3699 0.47412
C 5.50345 12.1502 6.68209
C 2.49852 0.35508 1.54004
H 0.24768 12.5084 6.91993
H 3.49155 12.5067 1.77336
C 2.48363 6.6337 5.40822
C 5.72803 5.90364 0.28669
H 3.13294 6.27291 4.61605
H -0.10828 6.26667 9.7662
C 2.92756 7.68099 6.23068
C 6.1883 4.86756 1.11596
H 3.89994 8.14655 6.0889
C 2.98256 11.1359 6.19748
C -0.01036 1.40553 1.07106
H 5.26093 1.85011 0.92351
C 4.93641 11.1381 7.47507
C 1.94823 1.3719 2.3406
H 5.48559 10.7097 8.30944
H 2.50886 1.79214 3.17267
C 0.94573 7.62654 7.47302
C 4.21083 4.90458 2.35686
C 0.43859 6.57577 6.69176
C 3.68763 5.945 1.56944
H 5.70774 6.17693 6.91975
H 2.69824 6.32683 1.80071
C 1.22745 6.06471 5.65205
C 4.46338 6.45777 0.52027
C 5.3126 1.24381 4.79419
C 2.0502 11.2675 9.92158
C 0.73548 4.94016 4.83586
C 3.73174 7.56629 9.95688
Ni 9.15137 9.41116 8.59265
Ni 12.4281 3.10579 3.48481
O 7.70109 4.35425 3.93374
O 10.6944 8.15245 9.05464
O 10.8895 1.84729 3.87523
O 7.61779 10.6744 9.00295
O 12.0589 4.46033 4.96242
O 8.79524 8.0327 10.0675
O 6.50397 1.69264 4.94273
O 9.49002 10.8047 10.0626
N 9.94957 10.6606 7.2416
N 6.96536 1.8642 2.11704
N 8.42499 8.14409 7.25198
N 11.693 4.39481 2.13747
C 9.73826 12.1483 5.36301
C 6.72768 0.38955 0.2292
H 9.11733 12.5181 4.55267
H 12.1225 0.03371 9.69377
C 11.0135 0.1474 5.61481
C 7.99613 12.3699 0.47412
C 11.7562 12.1502 6.68209
C 8.75132 0.35508 1.54004
H 6.50047 12.5084 6.91993
H 9.74435 12.5067 1.77336
C 8.73644 6.6337 5.40822
C 11.9808 5.90364 0.28669
H 9.38574 6.27291 4.61605
H 6.14452 6.26667 9.7662
C 9.18036 7.68099 6.23068
C 12.4411 4.86756 1.11596
H 10.1527 8.14655 6.0889
H 7.16869 4.41889 0.97634
C 9.23536 11.1359 6.19748
C 6.24244 1.40553 1.07106
C 11.1892 11.1381 7.47507
C 8.20102 1.3719 2.3406
H 11.7384 10.7097 8.30944
C 7.19853 7.62654 7.47302
C 10.4636 4.90458 2.35686
H 9.88885 4.47744 3.17528
C 6.69139 6.57577 6.69176
C 9.94043 5.945 1.56944
H 11.9605 6.17693 6.91975
H 8.95104 6.32683 1.80071
C 7.48025 6.06471 5.65205
C 10.7162 6.45777 0.52027
C 11.5654 1.24381 4.79419
C 8.303 11.2675 9.92158
C 6.98827 4.94016 4.83586
C 9.98454 7.56629 9.95688
C 1.57333 10.5275 5.93936
C 1.01371 9.55785 6.68309
H 0.96295 10.8656 5.12836
H 1.48929 9.10278 7.5376
H 0.02291 9.19764 6.42314
C 11.0951 2.03742 0.81856
C 10.5519 3.01148 1.56868
H 10.4782 1.71353 0.00671
H 11.0359 3.45419 2.42494
H 9.56647 3.38862 1.31242
C 0.09593 8.23029 8.63017
C 0.49814 9.23521 9.42693
H 11.6229 7.85937 8.85224
H 1.45514 9.72562 9.34268
H -0.16733 9.58858 10.2088
C 3.36975 4.30312 3.52362
C 3.78429 3.30888 4.32743
H 2.38869 4.66703 3.74641
H 4.74538 2.82647 4.24359
H 3.12517 2.95629 5.115
C 7.82613 10.5275 5.93936
C 7.26651 9.55785 6.68309
H 7.21575 10.8656 5.12836
H 7.74209 9.10278 7.5376
H 6.27571 9.19764 6.42314
C 9.0191 1.96646 3.52712
C 8.57766 2.9368 4.34568
H 10.0049 1.61725 3.75266
H 7.60817 3.40207 4.26161
H 9.2222 3.28665 5.14642
C 6.34873 8.23029 8.63016
C 6.75096 9.23521 9.42692
H 5.37012 7.85939 8.85224
H 7.70794 9.72563 9.34268
H 6.08547 9.58859 10.2088
C 1.33481 4.22856 0.87896
C 1.85464 3.23489 1.61981
H 1.97057 4.56335 0.08631
H 1.34984 2.77927 2.45708
H 2.84186 2.8544 1.37563
140
Atoms. Timestep: 243
Ni 3.00268 9.52301 8.64877
Ni 6.1381 3.39301 3.79066
O 1.2019 4.23121 3.69971
O 4.59246 8.60904 8.71406
O 4.51412 2.52025 3.84875
O 1.45044 10.4199 8.9452
O 5.77225 4.60083 5.04397
O 2.80574 8.38167 9.98258
O 0.420558 1.89039 4.7528
O 3.43242 10.7981 9.87206
N 3.51152 10.8168 7.17992
N 0.55969 1.94851 2.05834
N 2.27973 8.1122 7.35827
N 5.71114 4.77091 2.28179
C 3.14315 0.0465705 5.4403
C 0.32384 12.4085 0.746628
H 2.56506 0.405896 4.59712
H 5.69713 0.268467 9.92563
C 4.37482 0.668783 5.73971
C 1.71365 12.2792 0.531154
C 5.07632 0.150235 6.83026
C 2.51059 0.665113 1.24414
H 11.9632 1.0616 7.39868
H 3.56891 0.49686 1.28917
C 1.84264 7.16689 5.13116
C 5.07482 5.45179 -0.0117552
H 1.85912 7.35905 4.06511
H 11.1601 5.69084 9.36554
C 2.63509 7.99686 6.03029
C 5.67919 4.50697 0.915664
H 3.43851 8.60252 5.63489
C 2.70191 11.3765 6.16192
C 12.2787 1.13695 1.22978
H 5.09535 2.00066 1.25412
C 4.69561 11.4551 7.44938
C 1.91916 1.71092 2.04195
H 5.31426 11.0739 8.23805
H 2.55444 2.32867 2.63492
C 1.41458 7.13846 7.83496
C 5.32895 6.07255 2.63462
C 1.10931 5.96153 7.04686
C 5.28913 7.11617 1.67046
H 5.69752 6.54326 6.83081
H 5.25759 8.1466 2.0027
C 1.14907 6.0285 5.64199
C 4.92406 6.8148 0.361103
C 5.03348 1.81839 4.89768
C 2.12716 11.1872 9.84615
C 0.55 4.85842 4.71888
C 4.0174 7.89067 9.73069
Ni 9.05719 9.64013 8.98746
Ni 12.3318 3.10804 3.54518
O 7.71908 4.25411 4.07954
O 10.4684 8.65878 9.33308
O 10.9608 1.96544 3.73414
O 7.56444 10.6805 9.00948
O 11.8732 4.2198 4.92675
O 8.76087 8.57399 0.0799558
O 6.27487 2.2409 5.12284
O 9.42489 10.9001 10.1876
N 9.8986 10.8224 7.49813
N 6.8301 1.99445 2.48855
N 8.46535 8.236 7.66419
N 11.4678 4.40076 2.24484
C 10.4134 11.5771 5.17665
C 6.53822 0.552105 0.493429
H 10.3004 11.4134 4.11395
H 12.1768 11.5788 0.527337
C 11.1792 0.159059 5.61672
C 7.77825 12.4363 0.702809
C 11.3443 0.267248 7.00279
C 8.46784 0.269209 1.87603
H 5.97292 0.651412 7.17377
H 9.39453 12.2845 2.11408
C 8.94224 6.63241 5.85203
C 11.2436 5.69588 0.162474
H 9.67806 6.14524 5.24446
H 4.64207 5.14968 9.24297
C 9.36239 7.67547 6.76503
C 11.9628 4.75577 0.989895
H 10.3686 8.05453 6.70332
H 6.30082 3.74438 0.495846
C 9.65362 10.7595 6.10986
C 6.05801 1.55307 1.42449
C 10.7718 11.8248 7.90535
C 7.90477 1.1716 2.83741
H 11.0574 11.885 8.92112
C 7.3425 7.46658 7.88129
C 10.4025 5.14692 2.70842
H 9.91459 4.83305 3.6003
C 6.73502 6.8522 6.75631
C 9.97743 6.36524 2.06282
H 0.608918 5.12394 7.51862
H 9.27716 7.0205 2.56629
C 7.57869 6.22211 5.81692
C 10.4088 6.67322 0.758049
C 11.725 1.26866 4.62554
C 8.20706 11.4252 9.96886
C 7.04902 4.99697 5.00563
C 9.99173 8.02558 0.0315841
C 1.70733 10.5599 5.43779
C 0.562489 10.1638 5.98252
H 1.89695 10.326 4.39331
H 0.295167 10.4476 6.97662
H 12.3857 9.54792 5.40686
C 11.316 1.77082 0.292076
C 10.173 2.33331 0.675643
H 11.3156 1.75302 9.50899
H 9.93147 2.46045 1.71214
H 9.26859 2.73422 10.2044
C 0.343219 7.58684 8.65715
C 0.433222 7.6742 9.98716
H 11.9145 7.64411 8.15767
H 0.152116 8.45329 0.26306
H 1.30363 7.01602 0.259141
C 4.41659 6.24373 3.72677
C 3.5797 5.25755 3.98012
H 4.63513 6.98355 4.48391
H 3.39982 4.51825 3.21464
H 3.36235 4.99487 5.00889
C 8.50626 10.0242 5.54414
C 7.27128 10.2741 5.94936
H 8.66039 9.38061 4.68159
H 7.10868 11.0505 6.66981
H 6.42688 9.78583 5.47098
C 8.07005 0.738511 4.23366
C 8.65778 1.49267 5.17362
H 7.555 12.3679 4.5354
H 9.0299 2.47844 4.95153
H 8.5952 1.1858 6.21423
C 7.3428 6.61262 9.07693
C 7.95071 5.41797 9.08242
H 6.99863 7.00935 10.0027
H 8.04165 4.87052 10.0118
H 8.40365 5.01039 8.18559
C 0.720574 4.20634 0.47493
C 1.89249 4.64686 0.920205
H 0.475186 3.53458 9.89845
H 1.94258 5.44577 1.6514
H 2.8039 4.21821 0.531379
140
Atoms. Timestep: 308
Ni 3.00651 9.53218 8.63866
Ni 6.14602 3.38392 3.77795
O 1.16395 4.25197 3.75049
O 4.55206 8.55257 8.66653
O 4.54955 2.48338 3.84648
O 1.5082 10.4955 8.96086
O 5.77083 4.57524 5.03687
O 2.77028 8.35356 9.94741
O 0.420651 1.87865 4.80521
O 3.49419 10.7594 9.90268
N 3.55052 10.8339 7.19776
N 0.613229 1.93091 2.10022
N 2.20383 8.19932 7.32816
N 5.67308 4.75211 2.27351
C 3.23409 12.5098 5.38542
C 0.405339 12.3824 0.803345
H 2.70445 0.287931 4.4906
H 5.76086 0.359035 9.85505
C 4.4161 0.665321 5.74289
C 1.79747 12.2515 0.613883
C 5.0856 0.192239 6.87283
C 2.58275 0.6379 1.33732
H 11.9239 1.03248 7.44192
H 3.64031 0.46855 1.40313
C 1.89816 7.12035 5.14807
C 5.1465 5.42794 -0.0450302
H 1.98456 7.28676 4.08189
H 11.2477 5.72281 9.40035
C 2.68217 7.93125 6.06869
C 5.75949 4.51716 0.909121
H 3.54474 8.47161 5.70793
C 2.7835 11.3404 6.126
C 12.3524 1.11102 1.26176
H 5.12898 2.02988 1.22493
C 4.70523 11.5052 7.5054
C 1.97422 1.69838 2.10882
H 5.30694 11.1458 8.31683
H 2.59573 2.34015 2.68389
C 1.13298 7.44538 7.75412
C 5.21052 6.02822 2.62356
C 0.62654 6.31132 6.98966
C 5.09694 7.07985 1.66643
H 5.6812 6.47314 6.831
H 4.86531 8.08131 2.01412
C 1.00888 6.12025 5.64308
C 4.89 6.77898 0.324602
C 5.08193 1.7873 4.8856
C 2.20418 11.2044 9.88098
C 0.482139 4.86867 4.7586
C 3.96271 7.81889 9.66298
Ni 9.00964 9.5676 8.99544
Ni 12.3323 3.081 3.57115
O 7.70365 4.28056 4.03777
O 10.3905 8.5401 9.32872
O 10.9963 1.90218 3.72692
O 7.53738 10.6372 9.02176
O 11.8196 4.19418 4.94676
O 8.68604 8.48461 0.0753555
O 6.31676 2.22928 5.11281
O 9.39103 10.8063 10.2219
N 9.87939 10.7693 7.52329
N 6.85348 2.00294 2.47427
N 8.41691 8.20128 7.65163
N 11.4613 4.34187 2.25098
C 10.4012 11.5463 5.20878
C 6.57039 0.582539 0.462708
H 10.3118 11.3665 4.14604
H 12.2582 11.5687 0.530339
C 11.1615 0.130963 5.65228
C 7.77406 12.4085 0.707202
C 11.3049 0.242554 7.04283
C 8.44647 0.211843 1.89739
H 5.97443 0.70495 7.22114
H 9.325 12.1646 2.17112
C 8.89842 6.67504 5.77842
C 11.2536 5.661 0.180148
H 9.62144 6.25435 5.10955
H 4.82554 5.13058 9.19238
C 9.31671 7.68742 6.72495
C 11.9772 4.72822 1.01097
H 10.3241 8.07965 6.67336
H 6.45347 3.79467 0.529354
C 9.62838 10.7333 6.13502
C 6.08902 1.57539 1.3998
C 10.7349 11.7854 7.94362
C 7.93466 1.1827 2.82397
H 11.0002 11.8561 8.96915
C 7.33307 7.38106 7.88054
C 10.3584 5.03977 2.69776
H 9.91814 4.74633 3.62038
C 6.70895 6.80643 6.74935
C 9.86049 6.21608 2.02714
H -0.157819 5.6941 7.4037
H 9.0735 6.79729 2.48934
C 7.54475 6.22857 5.77158
C 10.3378 6.57202 0.751035
C 11.7385 1.22978 4.65106
C 8.18559 11.3611 9.99268
C 7.0332 5.00265 4.9718
C 9.91609 7.92274 0.0296966
C 1.79189 10.5057 5.42989
C 0.607042 10.2363 5.95426
H 2.00142 10.1823 4.41366
H 0.341828 10.6164 6.91812
H 12.4131 9.60358 5.41686
C 11.412 1.73277 0.298488
C 10.2257 2.2173 0.644206
H 11.4419 1.71578 9.5236
H 9.965 2.36834 1.67202
H 9.30069 2.52544 10.1483
C 0.279193 8.0597 8.72099
C 0.351445 7.75072 10.0147
H -0.157645 9.00105 8.42773
H 0.171644 8.42383 0.488933
H 1.14077 6.89233 0.059776
C 4.35698 6.16001 3.75945
C 3.54707 5.15585 4.0331
H 4.61135 6.88261 4.5207
H 3.37095 4.41202 3.27479
H 3.29203 4.92785 5.06242
C 8.45417 10.0491 5.56983
C 7.23322 10.3552 5.97237
H 8.57949 9.4146 4.69727
H 7.10638 11.1457 6.68469
H 6.36926 9.88815 5.51036
C 8.20483 0.86469 4.24111
C 8.76612 1.72416 5.10838
H 7.80388 12.4679 4.62038
H 9.12267 2.688 4.79925
H 8.80035 1.47623 6.16477
C 7.42296 6.45158 9.02518
C 8.0644 5.27664 8.92413
H 7.07082 6.75791 9.98915
H 8.1882 4.6543 9.80229
H 8.51311 4.95638 7.99132
C 0.733488 4.17442 0.48495
C 1.91272 4.60871 0.922027
H 0.48112 3.55665 9.86884
H 1.97438 5.40498 1.65484
H 2.82109 4.18852 0.509808
140
Atoms. Timestep: 316
Ni 3.00919 9.53174 8.63764
Ni 6.14752 3.38234 3.77689
O 1.1599 4.26033 3.74562
O 4.55571 8.55263 8.66699
O 4.55169 2.47986 3.84324
O 1.51016 10.4944 8.9588
O 5.77094 4.57291 5.03726
O 2.77365 8.35559 9.94735
O 0.425406 1.88444 4.80723
O 3.49635 10.7622 9.90053
N 3.55413 10.831 7.19696
N 0.609762 1.93421 2.09994
N 2.20616 8.19365 7.32657
N 5.67444 4.75202 2.27115
C 3.23706 12.5056 5.38346
C 0.406261 12.3857 0.800163
H 2.69973 0.293225 4.49673
H 5.76312 0.360994 9.85808
C 4.4199 0.6592 5.73842
C 1.79841 12.2604 0.606567
C 5.08171 0.19605 6.87654
C 2.58191 0.647525 1.33421
H 11.9299 1.02583 7.44495
H 3.6378 0.469704 1.41714
C 1.88799 7.11959 5.14455
C 4.91668 5.42875 10.2267
H 1.97932 7.27228 4.07783
H 11.2493 5.72056 9.39943
C 2.67712 7.92796 6.06113
C 5.76216 4.51885 0.905226
H 3.53661 8.468 5.69043
C 2.78795 11.335 6.12347
C 12.3497 1.11205 1.26157
H 5.13525 2.03443 1.21803
C 4.70308 11.5088 7.51057
C 1.97029 1.70441 2.10795
H 5.30684 11.1477 8.31907
H 2.58721 2.33838 2.69666
C 1.13754 7.43521 7.75633
C 5.21246 6.02777 2.62078
C 0.629993 6.30385 6.98983
C 5.10443 7.07992 1.66375
H 5.67961 6.47775 6.83591
H 4.8887 8.08527 2.01014
C 1.00484 6.11938 5.64115
C 4.89008 6.77919 0.323098
C 5.08469 1.78259 4.88188
C 2.20637 11.2081 9.87709
C 0.476669 4.87533 4.75397
C 3.96569 7.82108 9.66377
Ni 9.00711 9.56625 8.99681
Ni 12.3312 3.08506 3.57139
O 7.70405 4.27943 4.04028
O 10.3884 8.54097 9.33102
O 10.9999 1.90325 3.73127
O 7.53358 10.6354 9.02359
O 11.8167 4.19792 4.94481
O 8.68207 8.48299 0.0762302
O 6.31803 2.2267 5.11103
O 9.38864 10.804 10.2232
N 9.87785 10.7683 7.52301
N 6.85691 2.00324 2.47337
N 8.41676 8.1997 7.65444
N 11.4541 4.34281 2.25034
C 10.4024 11.5467 5.20734
C 6.57441 0.584902 0.46245
H 10.304 11.3749 4.14419
H 12.2621 11.5714 0.522464
C 11.1693 0.127682 5.6528
C 7.77383 12.4063 0.709389
C 11.3092 0.238258 7.04397
C 8.45008 0.212524 1.89625
H 5.96703 0.713322 7.22543
H 9.33659 12.1736 2.16369
C 8.89414 6.68169 5.77709
C 11.2556 5.66325 0.180095
H 9.61677 6.26041 5.1054
H 4.81893 5.13111 9.18954
C 9.3168 7.68315 6.73203
C 11.9759 4.73021 1.01291
H 10.3342 8.05295 6.7036
H 6.45929 3.80024 0.524429
C 9.63067 10.7291 6.13338
C 6.0949 1.57991 1.39579
C 10.7345 11.783 7.94352
C 7.93604 1.18053 2.82451
H 11.0008 11.8516 8.96829
C 7.3307 7.38256 7.88111
C 10.3491 5.04121 2.69235
H 9.90315 4.74727 3.61183
C 6.70617 6.81041 6.7497
C 9.85545 6.2194 2.02141
H -0.150041 5.68168 7.40504
H 9.07874 6.81325 2.48567
C 7.5409 6.23382 5.77034
C 10.3352 6.57265 0.747596
C 11.7448 1.2318 4.65421
C 8.1823 11.358 9.99515
C 7.03356 5.00105 4.97536
C 9.91292 7.92268 0.0294183
C 1.79651 10.5003 5.4297
C 0.609918 10.2354 5.95391
H 2.00515 10.1769 4.41302
H 0.345011 10.618 6.91708
H -0.0890539 9.60016 5.4195
C 11.4069 1.73295 0.298734
C 10.223 2.22155 0.646217
H 11.438 1.71944 9.52405
H 9.96356 2.36714 1.67483
H 9.30091 2.54232 10.1524
C 0.278274 8.04874 8.72045
C 0.35576 7.75274 10.0181
H -0.176212 8.97673 8.41547
H 0.183526 8.43324 0.489297
H 1.14154 6.89479 0.0690533
C 4.36054 6.16289 3.75738
C 3.55053 5.15997 4.03639
H 4.62077 6.88412 4.51729
H 3.36725 4.41568 3.2792
H 3.3056 4.93192 5.06851
C 8.45353 10.0456 5.56828
C 7.23397 10.3535 5.97482
H 8.57604 9.40767 4.69672
H 7.11125 11.1391 6.69456
H 6.36649 9.89033 5.51471
C 8.20443 0.859638 4.24105
C 8.76755 1.71618 5.10742
H 7.79161 12.4694 4.62387
H 9.12759 2.67916 4.79858
H 8.78521 1.47318 6.16519
C 7.41934 6.44977 9.02512
C 8.05945 5.27463 8.92282
H 7.06715 6.75372 9.9876
H 8.18543 4.65437 9.80039
H 8.51097 4.95844 7.98958
C 0.732801 4.17391 0.490858
C 1.91134 4.61302 0.925172
H 0.481426 3.55048 9.8782
H 1.97009 5.41322 1.65354
H 2.82169 4.1948 0.514663
140
Atoms. Timestep: 317
Ni 3.00919 9.53174 8.63764
Ni 6.14752 3.38234 3.77689
O 1.1599 4.26033 3.74562
O 4.55571 8.55263 8.66699
O 4.55169 2.47986 3.84324
O 1.51016 10.4944 8.9588
O 5.77094 4.57291 5.03726
O 2.77365 8.35559 9.94735
O 0.425406 1.88444 4.80723
O 3.49635 10.7622 9.90053
N 3.55413 10.831 7.19696
N 0.609762 1.93421 2.09994
N 2.20616 8.19365 7.32657
N 5.67444 4.75202 2.27115
C 3.23706 12.5056 5.38346
C 0.406261 12.3857 0.800163
H 2.69973 0.293225 4.49673
H 5.76312 0.360994 9.85808
C 4.4199 0.6592 5.73842
C 1.79841 12.2604 0.606567
C 5.08171 0.19605 6.87654
C 2.58191 0.647525 1.33421
H 11.9299 1.02583 7.44495
H 3.6378 0.469704 1.41714
C 1.88799 7.11959 5.14455
C 4.91668 5.42875 10.2267
H 1.97932 7.27228 4.07783
H 11.2493 5.72056 9.39943
C 2.67712 7.92796 6.06113
C 5.76216 4.51885 0.905226
H 3.53661 8.468 5.69043
C 2.78795 11.335 6.12347
C 12.3497 1.11205 1.26157
H 5.13525 2.03443 1.21803
C 4.70308 11.5088 7.51057
C 1.97029 1.70441 2.10795
H 5.30684 11.1477 8.31907
H 2.58721 2.33838 2.69666
C 1.13754 7.43521 7.75633
C 5.21246 6.02777 2.62078
C 0.629993 6.30385 6.98983
C 5.10443 7.07992 1.66375
H 5.67961 6.47775 6.83591
H 4.8887 8.08527 2.01014
C 1.00484 6.11938 5.64115
C 4.89008 6.77919 0.323098
C 5.08469 1.78259 4.88188
C 2.20637 11.2081 9.87709
C 0.476669 4.87533 4.75397
C 3.96569 7.82108 9.66377
Ni 9.00711 9.56625 8.99681
Ni 12.3312 3.08506 3.57139
O 7.70405 4.27943 4.04028
O 10.3884 8.54097 9.33102
O 10.9999 1.90325 3.73127
O 7.53358 10.6354 9.02359
O 11.8167 4.19792 4.94481
O 8.68207 8.48299 0.0762302
O 6.31803 2.2267 5.11103
O 9.38864 10.804 10.2232
N 9.87785 10.7683 7.52301
N 6.85691 2.00324 2.47337
N 8.41676 8.1997 7.65444
N 11.4541 4.34281 2.25034
C 10.4024 11.5467 5.20734
C 6.57441 0.584902 0.46245
H 10.304 11.3749 4.14419
H 12.2621 11.5714 0.522464
C 11.1693 0.127682 5.6528
C 7.77383 12.4063 0.709389
C 11.3092 0.238258 7.04397
C 8.45008 0.212524 1.89625
H 5.96703 0.713322 7.22543
H 9.33659 12.1736 2.16369
C 8.89414 6.68169 5.77709
C 11.2556 5.66325 0.180095
H 9.61677 6.26041 5.1054
H 4.81893 5.13111 9.18954
C 9.3168 7.68315 6.73203
C 11.9759 4.73021 1.01291
H 10.3342 8.05295 6.7036
H 6.45929 3.80024 0.524429
C 9.63067 10.7291 6.13338
C 6.0949 1.57991 1.39579
C 10.7345 11.783 7.94352
C 7.93604 1.18053 2.82451
H 11.0008 11.8516 8.96829
C 7.3307 7.38256 7.88111
C 10.3491 5.04121 2.69235
H 9.90315 4.74727 3.61183
C 6.70617 6.81041 6.7497
C 9.85545 6.2194 2.02141
H -0.150041 5.68168 7.40504
H 9.07874 6.81325 2.48567
C 7.5409 6.23382 5.77034
C 10.3352 6.57265 0.747596
C 11.7448 1.2318 4.65421
C 8.1823 11.358 9.99515
C 7.03356 5.00105 4.97536
C 9.91292 7.92268 0.0294183
C 1.79651 10.5003 5.4297
C 0.609918 10.2354 5.95391
H 2.00515 10.1769 4.41302
H 0.345011 10.618 6.91708
H -0.0890539 9.60016 5.4195
C 11.4069 1.73295 0.298734
C 10.223 2.22155 0.646217
H 11.438 1.71944 9.52405
H 9.96356 2.36714 1.67483
H 9.30091 2.54232 10.1524
C 0.278274 8.04874 8.72045
C 0.35576 7.75274 10.0181
H -0.176212 8.97673 8.41547
H 0.183526 8.43324 0.489297
H 1.14154 6.89479 0.0690533
C 4.36054 6.16289 3.75738
C 3.55053 5.15997 4.03639
H 4.62077 6.88412 4.51729
H 3.36725 4.41568 3.2792
H 3.3056 4.93192 5.06851
C 8.45353 10.0456 5.56828
C 7.23397 10.3535 5.97482
H 8.57604 9.40767 4.69672
H 7.11125 11.1391 6.69456
H 6.36649 9.89033 5.51471
C 8.20443 0.859638 4.24105
C 8.76755 1.71618 5.10742
H 7.79161 12.4694 4.62387
H 9.12759 2.67916 4.79858
H 8.78521 1.47318 6.16519
C 7.41934 6.44977 9.02512
C 8.05945 5.27463 8.92282
H 7.06715 6.75372 9.9876
H 8.18543 4.65437 9.80039
H 8.51097 4.95844 7.98958
C 0.732801 4.17391 0.490858
C 1.91134 4.61302 0.925172
H 0.481426 3.55048 9.8782
H 1.97009 5.41322 1.65354
H 2.82169 4.1948 0.514663
