148
Atoms. Timestep: 0
Ni 2.89857 9.41116 8.59265
Ni 6.17525 3.10579 3.48481
O 1.44827 4.35425 3.93374
O 4.4416 8.15245 9.05464
O 4.63665 1.84729 3.87523
O 1.36499 10.6744 9.00295
O 5.80609 4.46033 4.96242
O 2.54244 8.0327 10.0675
O 0.25117 1.69264 4.94273
O 3.23722 10.8047 10.0626
N 3.69677 10.6606 7.2416
N 0.71256 1.8642 2.11704
N 2.17217 8.14409 7.25198
N 5.44023 4.39481 2.13747
C 3.48546 12.1483 5.36301
C 0.47488 0.38955 0.2292
C 4.76073 0.1474 5.61481
C 1.74333 12.3699 0.47412
C 5.50345 12.1502 6.68209
C 2.49852 0.35508 1.54004
H 3.49155 12.5067 1.77336
C 2.48363 6.6337 5.40822
C 5.72803 5.90364 0.28669
H 3.13294 6.27291 4.61605
C 2.92756 7.68099 6.23068
C 6.1883 4.86756 1.11596
H 3.89994 8.14655 6.0889
H 0.91589 4.41889 0.97634
C 2.98256 11.1359 6.19748
C -0.01036 1.40553 1.07106
H 1.99392 10.709 6.04703
H 5.26093 1.85011 0.92351
C 4.93641 11.1381 7.47507
C 1.94823 1.3719 2.3406
H 5.48559 10.7097 8.30944
H 2.50886 1.79214 3.17267
C 0.94573 7.62654 7.47302
C 4.21083 4.90458 2.35686
H 0.36328 8.05184 8.28732
H 3.63605 4.47744 3.17528
C 0.43859 6.57577 6.69176
C 3.68763 5.945 1.56944
H 2.69824 6.32683 1.80071
C 1.22745 6.06471 5.65205
C 4.46338 6.45777 0.52027
C 5.3126 1.24381 4.79419
C 2.0502 11.2675 9.92158
C 0.73548 4.94016 4.83586
C 3.73174 7.56629 9.95688
Ni 9.15137 9.41116 8.59265
Ni 12.4281 3.10579 3.48481
O 7.70109 4.35425 3.93374
O 10.6944 8.15245 9.05464
O 10.8895 1.84729 3.87523
O 7.61779 10.6744 9.00295
O 12.0589 4.46033 4.96242
O 8.79524 8.0327 10.0675
O 6.50397 1.69264 4.94273
O 9.49002 10.8047 10.0626
N 9.94957 10.6606 7.2416
N 6.96536 1.8642 2.11704
N 8.42499 8.14409 7.25198
N 11.693 4.39481 2.13747
C 9.73826 12.1483 5.36301
C 6.72768 0.38955 0.2292
H 9.11733 12.5181 4.55267
C 11.0135 0.1474 5.61481
C 7.99613 12.3699 0.47412
C 11.7562 12.1502 6.68209
C 8.75132 0.35508 1.54004
H 6.50047 12.5084 6.91993
H 9.74435 12.5067 1.77336
C 8.73644 6.6337 5.40822
C 11.9808 5.90364 0.28669
H 9.38574 6.27291 4.61605
C 9.18036 7.68099 6.23068
C 12.4411 4.86756 1.11596
H 10.1527 8.14655 6.0889
H 7.16869 4.41889 0.97634
C 9.23536 11.1359 6.19748
C 6.24244 1.40553 1.07106
H 8.24672 10.709 6.04703
H 11.5137 1.85011 0.92351
C 11.1892 11.1381 7.47507
C 8.20102 1.3719 2.3406
H 11.7384 10.7097 8.30944
H 8.76167 1.79214 3.17267
C 7.19853 7.62654 7.47302
C 10.4636 4.90458 2.35686
H 6.61608 8.05184 8.28732
H 9.88885 4.47744 3.17528
C 6.69139 6.57577 6.69176
C 9.94043 5.945 1.56944
H 8.95104 6.32683 1.80071
C 7.48025 6.06471 5.65205
C 10.7162 6.45777 0.52027
C 11.5654 1.24381 4.79419
C 8.303 11.2675 9.92158
C 6.98827 4.94016 4.83586
C 9.98454 7.56629 9.95688
C 2.62422 0.13747 4.19751
N 1.33358 11.9847 4.07571
H 3.17967 12.5205 3.24401
H 2.43189 1.22036 4.35774
H 1.49639 10.9935 3.78197
H 0.78955 12.4445 3.31015
C 11.8835 12.4252 9.33361
N 10.5843 0.56686 9.24653
H 11.7063 11.3324 9.44154
H -0.07182 0.09574 8.38758
H 9.9991 0.2762 10.064
H 10.096 0.22866 8.3859
C 11.546 6.01763 6.98965
N 10.8837 6.66088 8.1234
H 11.6259 4.9297 7.20741
H 10.9122 6.1692 6.08928
H 11.3913 6.40563 9.00217
H 9.91628 6.27246 8.20594
C 6.39799 6.40785 9.41827
N 7.67209 5.69849 9.31187
H 5.85744 6.29491 8.45264
H 6.61625 7.48296 9.59659
H 7.48837 4.716 9.00185
H 8.24293 6.15318 8.56293
C 0.66185 0.13793 7.00529
N 1.28912 11.9849 8.13966
H 1.3137 12.5206 6.11497
H 0.59242 1.22088 7.24556
H 1.49279 10.9937 7.87308
H 2.20858 12.4443 8.33222
C 5.63073 12.4252 9.33361
N 4.33152 0.56686 9.24653
H 5.45345 11.3324 9.44154
H 6.18098 0.09574 8.38758
H 3.7463 0.2762 10.064
H 3.8432 0.22866 8.3859
C 5.29638 6.01237 6.99466
N 4.61593 6.68552 8.09995
H 4.6596 6.10675 6.08748
H 5.40538 4.93862 7.26014
H 4.37727 7.66149 7.80725
H 3.71226 6.19199 8.28251
C 0.1452 6.40785 9.41828
N 1.4193 5.6985 9.31188
H 12.1103 6.29492 8.45265
H 0.36346 7.48297 9.59661
H 1.2356 4.71601 9.00186
H 1.99014 6.1532 8.56295
148
Atoms. Timestep: 199
Ni 2.79885 9.28586 8.81986
Ni 6.0064 2.84089 3.58202
O 1.14373 4.14412 3.5613
O 4.31073 8.31054 9.1104
O 4.52708 1.7859 3.73079
O 1.2847 10.2671 8.93554
O 5.59272 4.00132 4.87049
O 2.39379 8.18701 10.1782
O 0.114688 1.98748 4.72003
O 3.15922 10.5804 10.0657
N 3.54561 10.4401 7.36842
N 0.357795 1.80569 2.12401
N 2.11636 7.93808 7.41518
N 5.25975 4.10366 2.27212
C 3.51877 11.545 5.13926
C 0.0311432 0.0539684 0.526985
C 4.66377 12.3384 5.48707
C 1.45165 12.2976 0.382389
C 5.36275 11.8954 6.61057
C 2.28261 0.748532 0.992267
H 3.35302 0.697021 0.865177
C 2.39307 6.55008 5.36605
C 5.75452 5.92555 0.734688
H 3.00669 6.30598 4.51656
C 2.89718 7.50619 6.35305
C 6.07589 4.6713 1.36025
H 3.90526 7.88506 6.24886
H 0.428493 4.02502 0.774783
C 2.9769 10.5858 6.11074
C 12.1658 0.687886 1.73594
H 2.03982 10.0921 5.90183
H 5.26308 2.00732 0.672312
C 4.75072 11.0557 7.59259
C 1.70137 1.81953 1.77519
H 5.25429 10.8915 8.53089
H 2.34467 2.59187 2.15161
C 0.780504 7.56527 7.35732
C 4.04331 4.70081 2.50749
H 0.0440617 8.23562 7.73224
H 3.46573 4.36103 3.34475
C 0.353237 6.38962 6.61298
C 3.60423 5.86926 1.77933
H 2.7105 6.36851 2.10508
C 1.11176 5.93841 5.51688
C 4.43245 6.48575 0.809767
C 5.22458 1.04959 4.64519
C 1.86702 11.0068 9.9223
C 0.480687 4.85951 4.50621
C 3.66209 7.71238 10.1603
Ni 9.1187 9.42761 8.62389
Ni 12.1511 3.09405 3.46257
O 7.49859 3.88931 3.75439
O 10.5955 8.41439 8.94023
O 10.6592 2.09802 3.70184
O 7.64026 10.4587 8.68211
O 11.7527 4.30322 4.66827
O 8.67158 8.37649 10.0096
O 6.45965 1.609 4.82429
O 9.52712 10.7032 9.81909
N 9.89618 10.5601 7.15371
N 6.72665 1.64599 2.16904
N 8.37411 8.05424 7.26486
N 11.3717 4.24633 2.11538
C 9.49808 12.3185 5.50343
C 6.59867 0.654861 10.2059
H 8.74768 0.384861 5.03236
C 10.8397 0.254328 5.54264
C 7.79947 12.2061 0.339669
C 11.7009 12.1415 6.46131
C 8.29144 12.3635 1.64477
H 6.39837 12.1384 6.6941
H 9.10386 11.7391 1.98979
C 8.56807 6.59372 5.25918
C 11.8795 5.90279 0.458663
H 9.11667 6.36664 4.37368
C 9.05971 7.66968 6.12641
C 12.0703 4.6124 1.03693
H 10.0027 8.14377 5.88958
H 7.06642 4.25265 1.24529
C 9.07699 11.1617 6.23628
C 6.13988 1.43697 0.944079
H 8.07563 10.7849 6.09712
H 11.1787 0.500574 2.11972
C 11.2358 10.9487 7.17113
C 7.8738 0.948073 2.44145
H 11.8907 10.4437 7.82433
H 8.50303 1.29213 3.22054
C 7.08116 7.54572 7.37899
C 10.2144 4.92663 2.39466
H 6.32783 8.16229 7.82793
H 9.62885 4.60473 3.22638
C 6.67702 6.30465 6.70025
C 9.87096 6.14936 1.72023
H 9.10007 6.77126 2.13392
C 7.39148 5.842 5.57784
C 10.6571 6.63047 0.652785
C 11.3614 1.46284 4.66294
C 8.28239 11.2132 9.61643
C 6.82947 4.58012 4.71379
C 9.9339 7.86998 10.0062
C 2.92145 11.6467 3.75643
N 2.11315 10.4727 3.42007
H 3.74299 11.7452 3.01318
H 2.29578 0.0361332 3.71097
H 2.24056 10.2202 2.41431
H 1.10221 10.6695 3.60458
C 11.5324 0.604882 9.60918
N 10.5707 1.65891 9.95758
H 11.001 12.3295 9.11909
H 12.1987 1.10156 8.92261
H 9.68129 1.24155 10.2943
H 10.3686 2.25496 9.12091
C 11.5866 5.61813 6.91394
N 10.9144 5.86014 8.15323
H 11.8606 4.53689 6.92206
H 10.8843 5.82074 6.09249
H 10.7529 4.93333 8.61353
H 9.95523 6.18124 7.94478
C 6.88325 6.69068 0.205103
N 7.60561 5.77461 9.83082
H 6.35221 7.49284 9.81916
H 7.33184 7.18469 1.07924
H 7.1202 5.12699 9.19014
H 8.2706 6.25589 9.22164
C 0.582485 0.275604 6.63441
N 1.50167 12.4752 7.69813
H 1.10837 0.117426 5.67528
H 0.379218 1.35577 6.79977
H 2.45606 0.117191 7.32329
H 1.57482 0.736607 8.37654
C 6.66529 1.21719 8.81899
N 7.14397 2.5859 8.86121
H 5.64858 1.20314 8.37427
H 7.38402 0.645396 8.2058
H 6.32167 3.18429 9.08619
H 7.5263 2.85369 7.92421
C 5.46549 5.48315 7.09319
N 4.83602 5.78173 8.34427
H 4.71636 5.57902 6.28929
H 5.79997 4.42304 7.14997
H 4.68658 4.88024 8.85543
H 3.87592 6.10215 8.15016
C 0.580327 6.57537 0.034274
N 1.24826 5.61895 9.63589
H 0.132434 7.45789 9.71593
H 1.02418 6.93343 0.975179
H 0.736305 4.98335 8.9844
H 1.99421 6.08024 9.10367
148
Atoms. Timestep: 215
Ni 2.79701 9.28503 8.8231
Ni 6.00948 2.8374 3.58224
O 1.14583 4.15135 3.55486
O 4.30863 8.31164 9.11932
O 4.53113 1.78318 3.73349
O 1.28086 10.2646 8.93389
O 5.59384 3.99968 4.86359
O 2.39168 8.18886 10.1865
O 0.117526 1.99433 4.71505
O 3.15428 10.5809 10.0659
N 3.54513 10.4374 7.36923
N 0.356324 1.811 2.11673
N 2.11731 7.93413 7.41997
N 5.26306 4.09592 2.26875
C 3.52037 11.5498 5.14272
C 0.0251577 0.0514846 0.528961
C 4.66629 12.3396 5.49302
C 1.44493 12.2938 0.384057
C 5.36507 11.8913 6.61412
C 2.27778 0.745859 0.990317
H 3.34835 0.68657 0.870583
C 2.39163 6.5526 5.36703
C 5.75422 5.93127 0.74338
H 3.01486 6.28767 4.53275
C 2.89345 7.51342 6.34985
C 6.08068 4.67527 1.36542
H 3.89673 7.90179 6.23658
H 0.422223 4.02029 0.763287
C 2.97522 10.5892 6.11251
C 12.162 0.691979 1.73467
H 2.03258 10.1018 5.90428
H 5.28691 2.014 0.664127
C 4.75345 11.047 7.59239
C 1.69858 1.82138 1.76748
H 5.25486 10.8827 8.53106
H 2.34495 2.58914 2.14898
C 0.783762 7.55325 7.36955
C 4.04519 4.68983 2.50676
H 0.0486984 8.21131 7.76541
H 3.47003 4.34978 3.34604
C 0.353447 6.38551 6.61366
C 3.6046 5.86043 1.78301
H 2.70663 6.35053 2.10501
C 1.11084 5.94239 5.51412
C 4.43129 6.48466 0.81714
C 5.22609 1.0523 4.65325
C 1.86173 11.005 9.92125
C 0.481503 4.86622 4.50064
C 3.66093 7.7151 10.1701
Ni 9.11411 9.42555 8.61209
Ni 12.1518 3.10097 3.4571
O 7.5028 3.88686 3.75157
O 10.5869 8.4048 8.9154
O 10.6611 2.10663 3.69763
O 7.64187 10.4635 8.68326
O 11.755 4.3085 4.66233
O 8.66542 8.36711 9.98933
O 6.46233 1.61057 4.82983
O 9.53352 10.6884 9.81739
N 9.89391 10.5667 7.14689
N 6.73265 1.63763 2.17514
N 8.35774 8.06469 7.24679
N 11.3719 4.25444 2.10939
C 9.49891 12.3319 5.50305
C 6.61706 0.650773 10.2126
H 8.75008 0.410488 5.04797
C 10.8429 0.25942 5.53625
C 7.81658 12.2034 0.348625
C 11.7033 12.1441 6.45392
C 8.30488 12.3597 1.65699
H 6.39704 12.1474 6.70665
H 9.12036 11.7387 2.0034
C 8.56154 6.59457 5.25333
C 11.8766 5.89744 0.43956
H 9.11841 6.36073 4.37843
C 9.04842 7.67309 6.11595
C 12.0623 4.60797 1.02043
H 9.99411 8.14441 5.88307
H 7.07154 4.25989 1.24681
C 9.07404 11.177 6.23548
C 6.15258 1.43012 0.947005
H 8.06862 10.8108 6.10318
H 11.1751 0.510604 2.1184
C 11.2357 10.9512 7.16263
C 7.8798 0.941805 2.45374
H 11.8919 10.4391 7.80996
H 8.50682 1.29177 3.23145
C 7.06608 7.54888 7.36367
C 10.2218 4.94654 2.39671
H 6.31896 8.14292 7.84511
H 9.64449 4.6384 3.23894
C 6.66564 6.30565 6.68732
C 9.87563 6.16017 1.70934
H 9.10881 6.79032 2.11903
C 7.38428 5.84264 5.56866
C 10.6548 6.62778 0.633441
C 11.3638 1.47067 4.65935
C 8.29017 11.2043 9.6243
C 6.82997 4.57778 4.70853
C 9.92499 7.85652 9.97798
C 2.9333 11.6507 3.7569
N 2.12659 10.4773 3.41944
H 3.76172 11.746 3.02014
H 2.31088 0.0421623 3.7044
H 2.24949 10.2322 2.41169
H 1.1169 10.6705 3.6138
C 11.5258 0.599128 9.6107
N 10.5574 1.64606 9.96154
H 10.9996 12.321 9.11926
H 12.1908 1.10035 8.9249
H 9.90961 1.22298 0.0508772
H 10.3305 2.22814 9.12208
C 11.5925 5.60453 6.91614
N 10.914 5.85287 8.14924
H 11.8785 4.52544 6.93222
H 10.8854 5.80241 6.09618
H 10.7194 4.92718 8.59976
H 9.96932 6.2096 7.93483
C 6.87943 6.6983 0.209212
N 7.59599 5.78304 9.82384
H 6.34514 7.50623 9.83291
H 7.33535 7.18939 1.08115
H 7.0957 5.11028 9.22119
H 8.23176 6.25344 9.17441
C 0.584387 0.278309 6.6288
N 1.50518 12.4691 7.68909
H 1.1096 0.125273 5.66795
H 0.384281 1.35868 6.798
H 2.45782 0.128011 7.31793
H 1.56579 0.719462 8.38017
C 6.68346 1.2118 8.8261
N 7.13242 2.59014 8.87211
H 5.66817 1.1793 8.38311
H 7.41349 0.652747 8.21183
H 6.29664 3.16896 9.1021
H 7.50673 2.87217 7.93662
C 5.4502 5.48592 7.07854
N 4.83091 5.77938 8.33638
H 4.69873 5.58549 6.27523
H 5.77336 4.42317 7.12958
H 4.68858 4.87796 8.84903
H 3.8683 6.09606 8.14481
C 0.58451 6.57454 0.0417396
N 1.26768 5.62675 9.6498
H 0.145529 7.46854 9.73776
H 1.01444 6.92398 0.992753
H 0.77538 4.98003 8.99462
H 2.014 6.09511 9.12529
148
Atoms. Timestep: 218
Ni 2.79683 9.28511 8.82326
Ni 6.00989 2.83748 3.58238
O 1.14568 4.15178 3.55457
O 4.30806 8.31146 9.11877
O 4.53134 1.78362 3.73361
O 1.28095 10.2643 8.93426
O 5.59356 3.99947 4.86382
O 2.39161 8.18839 10.1866
O 0.118 1.99409 4.71471
O 3.15452 10.5814 10.0657
N 3.54491 10.4371 7.36928
N 0.356125 1.81136 2.11733
N 2.117 7.93423 7.42002
N 5.26318 4.0965 2.2689
C 3.52031 11.5494 5.14316
C 0.0253782 0.0518037 0.528923
C 4.66634 12.3391 5.49304
C 1.44499 12.2937 0.383797
C 5.36543 11.8917 6.61398
C 2.27764 0.745499 0.990063
H 3.34866 0.686676 0.870524
C 2.39138 6.55234 5.36634
C 5.75502 5.93105 0.74327
H 3.01514 6.28798 4.53247
C 2.8933 7.51323 6.34951
C 6.08073 4.67559 1.36538
H 3.89648 7.90186 6.23706
H 0.421571 4.02051 0.762407
C 2.97478 10.5892 6.11266
C 12.1623 0.692095 1.73538
H 2.03322 10.102 5.90434
H 5.28741 2.01281 0.663704
C 4.75374 11.0469 7.5925
C 1.69828 1.82161 1.76757
H 5.25484 10.8826 8.53125
H 2.34496 2.58878 2.14868
C 0.783437 7.553 7.37006
C 4.04504 4.68982 2.50639
H 0.0490927 8.21149 7.76514
H 3.47046 4.34939 3.34581
C 0.353265 6.3856 6.61431
C 3.60427 5.86049 1.78229
H 2.70593 6.35073 2.10552
C 1.11115 5.94212 5.51436
C 4.43153 6.4848 0.817104
C 5.22626 1.05229 4.65326
C 1.86176 11.005 9.92146
C 0.481636 4.86596 4.50083
C 3.66113 7.71479 10.1706
Ni 9.11413 9.4253 8.61239
Ni 12.152 3.10106 3.45709
O 7.50267 3.88682 3.75202
O 10.587 8.40462 8.91521
O 10.6611 2.10613 3.69848
O 7.64177 10.4631 8.68343
O 11.7549 4.30914 4.66238
O 8.66513 8.36716 9.98887
O 6.46247 1.61048 4.83022
O 9.53355 10.6885 9.8174
N 9.89394 10.566 7.14711
N 6.73272 1.63799 2.17515
N 8.35809 8.06479 7.24704
N 11.3718 4.2545 2.10914
C 9.49906 12.3323 5.50331
C 6.61704 0.650197 10.2125
H 8.74996 0.410963 5.04879
C 10.8428 0.259885 5.5358
C 7.8164 12.203 0.348084
C 11.7032 12.1442 6.45352
C 8.30455 12.3593 1.65666
H 6.39678 12.1476 6.70714
H 9.12056 11.7386 2.00361
C 8.56137 6.59423 5.25314
C 11.8765 5.89704 0.439329
H 9.11831 6.36076 4.37757
C 9.04858 7.67354 6.11579
C 12.0615 4.60764 1.02087
H 9.99394 8.14429 5.883
H 7.07179 4.25993 1.24695
C 9.07419 11.1773 6.23589
C 6.1524 1.43059 0.947407
H 8.06869 10.8106 6.1033
H 11.1749 0.510311 2.11839
C 11.2354 10.951 7.16271
C 7.87953 0.941173 2.45326
H 11.892 10.4389 7.80945
H 8.50672 1.29189 3.23115
C 7.0663 7.54917 7.36433
C 10.2218 4.94639 2.39596
H 6.31862 8.14372 7.84479
H 9.64429 4.63804 3.23882
C 6.66593 6.30631 6.68789
C 9.87552 6.16087 1.70933
H 9.10865 6.78985 2.11981
C 7.38475 5.84308 5.5691
C 10.6549 6.62794 0.633468
C 11.3638 1.47108 4.65925
C 8.29019 11.2042 9.62411
C 6.82989 4.5782 4.70894
C 9.92483 7.85623 9.97779
C 2.93365 11.6507 3.75712
N 2.12693 10.4771 3.41975
H 3.76169 11.7458 3.01975
H 2.31126 0.0420412 3.7045
H 2.24965 10.2325 2.41153
H 1.11676 10.6704 3.61379
C 11.5256 0.598673 9.61037
N 10.5575 1.64616 9.96126
H 11 12.3209 9.11966
H 12.1908 1.10056 8.92453
H 9.91015 1.22294 0.0510043
H 10.3295 2.22768 9.12157
C 11.5925 5.60496 6.91614
N 10.9145 5.8524 8.14959
H 11.8785 4.52553 6.9322
H 10.8857 5.80209 6.09563
H 10.7191 4.92674 8.59959
H 9.969 6.2098 7.93479
C 6.87958 6.6982 0.20927
N 7.5959 5.78335 9.8236
H 6.34487 7.5061 9.83271
H 7.33564 7.18883 1.08117
H 7.09622 5.1103 9.2213
H 8.23228 6.25394 9.17431
C 0.584151 0.278337 6.62856
N 1.50438 12.4698 7.68815
H 1.10939 0.125142 5.66829
H 0.384508 1.35831 6.79812
H 2.45783 0.128065 7.31809
H 1.56584 0.71936 8.38033
C 6.68441 1.21173 8.82634
N 7.13213 2.59068 8.87237
H 5.66787 1.17943 8.38295
H 7.41366 0.653072 8.21197
H 6.29625 3.16916 9.10171
H 7.50618 2.87192 7.93661
C 5.45017 5.48606 7.07885
N 4.83041 5.78034 8.33614
H 4.69856 5.58521 6.27553
H 5.77375 4.42323 7.12952
H 4.68889 4.87812 8.84864
H 3.8691 6.09598 8.14456
C 0.584093 6.57447 0.0421149
N 1.26799 5.62695 9.64993
H 0.144893 7.4684 9.73761
H 1.01443 6.92381 0.993161
H 0.775083 4.97999 8.99431
H 2.01404 6.09504 9.12514
148
Atoms. Timestep: 220
Ni 2.79669 9.28493 8.82321
Ni 6.00997 2.83753 3.58231
O 1.14565 4.15177 3.55452
O 4.30806 8.31138 9.11882
O 4.53133 1.78364 3.73363
O 1.28095 10.2644 8.93432
O 5.5936 3.99959 4.86398
O 2.39168 8.18836 10.1867
O 0.118015 1.99416 4.71469
O 3.15459 10.5814 10.0657
N 3.54508 10.4373 7.36929
N 0.35598 1.81118 2.11729
N 2.11702 7.93414 7.41991
N 5.26307 4.09654 2.26907
C 3.52044 11.5495 5.14316
C 0.0253496 0.0518025 0.528942
C 4.66635 12.3391 5.49296
C 1.44506 12.2938 0.383797
C 5.36536 11.8916 6.61416
C 2.27757 0.745567 0.99012
H 3.34867 0.686665 0.87049
C 2.39147 6.5525 5.3664
C 5.75479 5.93111 0.743318
H 3.01514 6.28799 4.53235
C 2.89311 7.51326 6.34963
C 6.08104 4.67557 1.36532
H 3.89645 7.90183 6.23709
H 0.421382 4.02044 0.762303
C 2.97479 10.5892 6.11276
C 12.1624 0.692113 1.73537
H 2.03322 10.102 5.90434
H 5.28736 2.01272 0.663725
C 4.75358 11.0468 7.59245
C 1.69845 1.82165 1.76754
H 5.25488 10.8826 8.53129
H 2.34495 2.58876 2.14865
C 0.783504 7.55301 7.37017
C 4.04516 4.68985 2.50618
H 0.0490729 8.21156 7.7651
H 3.47048 4.34934 3.34576
C 0.353374 6.38553 6.61425
C 3.60411 5.86035 1.78237
H 2.70589 6.35078 2.10554
C 1.11107 5.94202 5.51442
C 4.43164 6.48483 0.817054
C 5.22641 1.05228 4.65333
C 1.86173 11.005 9.92142
C 0.481717 4.86605 4.50089
C 3.66107 7.71494 10.1705
Ni 9.11451 9.42544 8.61235
Ni 12.152 3.10124 3.45711
O 7.50268 3.88692 3.75219
O 10.5869 8.40454 8.91524
O 10.661 2.10629 3.69838
O 7.64173 10.463 8.68339
O 11.7549 4.30906 4.66238
O 8.66509 8.36707 9.9889
O 6.46243 1.61046 4.83024
O 9.53347 10.6884 9.81739
N 9.89367 10.5661 7.14697
N 6.7327 1.63805 2.17521
N 8.35785 8.06467 7.2471
N 11.3718 4.25444 2.10916
C 9.49889 12.3325 5.50333
C 6.61698 0.650233 10.2126
H 8.74995 0.411115 5.04897
C 10.843 0.259805 5.53594
C 7.81632 12.2029 0.348097
C 11.703 12.1442 6.45342
C 8.30457 12.3591 1.65666
H 6.3968 12.1477 6.7072
H 9.12054 11.7385 2.00358
C 8.56146 6.59438 5.25322
C 11.8764 5.8971 0.43932
H 9.11822 6.36076 4.37743
C 9.04864 7.6736 6.11573
C 12.0616 4.60772 1.02059
H 9.99395 8.14428 5.88296
H 7.0718 4.25995 1.24699
C 9.07432 11.1773 6.23606
C 6.15266 1.43026 0.947085
H 8.06871 10.8106 6.10332
H 11.1749 0.510303 2.11843
C 11.2357 10.951 7.16273
C 7.87944 0.941262 2.45335
H 11.892 10.4388 7.80934
H 8.50672 1.29181 3.23103
C 7.0665 7.54932 7.36443
C 10.2215 4.94633 2.39608
H 6.31859 8.14391 7.84471
H 9.64429 4.63799 3.23868
C 6.66588 6.30627 6.68793
C 9.8757 6.16073 1.70937
H 9.10861 6.78985 2.11993
C 7.38469 5.84305 5.56917
C 10.6548 6.628 0.633553
C 11.3638 1.47099 4.65941
C 8.29026 11.2042 9.62411
C 6.82986 4.57811 4.70892
C 9.92484 7.85628 9.97762
C 2.93363 11.6506 3.75716
N 2.12692 10.4771 3.41973
H 3.7617 11.7457 3.0197
H 2.31134 0.0420288 3.70453
H 2.24968 10.2326 2.41157
H 1.11685 10.6703 3.61378
C 11.5257 0.59883 9.61041
N 10.5575 1.64613 9.96116
H 11 12.3208 9.11968
H 12.1908 1.10055 8.92448
H 9.91023 1.22292 0.0510692
H 10.3293 2.22754 9.12146
C 11.5925 5.60492 6.91617
N 10.9143 5.85245 8.14956
H 11.8785 4.52562 6.93218
H 10.8857 5.80207 6.09557
H 10.719 4.9266 8.59954
H 9.9692 6.20975 7.93484
C 6.87965 6.69822 0.209222
N 7.59606 5.78345 9.82351
H 6.34481 7.50605 9.83271
H 7.33572 7.18872 1.08119
H 7.09629 5.11026 9.22128
H 8.23232 6.254 9.17434
C 0.584031 0.278423 6.62841
N 1.50445 12.4698 7.68826
H 1.10937 0.125106 5.66828
H 0.384508 1.3583 6.79809
H 2.45776 0.128081 7.31809
H 1.5658 0.719348 8.38032
C 6.68423 1.21184 8.82633
N 7.13215 2.59068 8.87243
H 5.66801 1.17945 8.383
H 7.4138 0.653114 8.21196
H 6.29609 3.16923 9.10164
H 7.50606 2.8719 7.9366
C 5.45025 5.48622 7.07887
N 4.83068 5.78023 8.33624
H 4.69855 5.58515 6.27558
H 5.77382 4.42328 7.12956
H 4.68895 4.8783 8.84852
H 3.8689 6.09608 8.14444
C 0.584168 6.57439 0.0421272
N 1.26784 5.62687 9.64991
H 0.144751 7.46834 9.73763
H 1.01437 6.92377 0.993244
H 0.775117 4.98009 8.99436
H 2.01408 6.09506 9.12509
148
Atoms. Timestep: 222
Ni 2.7968 9.28499 8.82325
Ni 6.00989 2.83758 3.58243
O 1.14566 4.15182 3.55451
O 4.30802 8.31136 9.11878
O 4.53138 1.78364 3.73366
O 1.28091 10.2643 8.93433
O 5.59362 3.99962 4.86403
O 2.39165 8.18834 10.1868
O 0.118023 1.9942 4.71472
O 3.15457 10.5814 10.0656
N 3.54499 10.4372 7.36929
N 0.356064 1.81124 2.11729
N 2.11693 7.93414 7.41996
N 5.26329 4.09659 2.26899
C 3.52045 11.5495 5.14313
C 0.025375 0.0518257 0.528954
C 4.66643 12.3391 5.493
C 1.44502 12.2939 0.383793
C 5.36531 11.8916 6.61418
C 2.27765 0.745601 0.990132
H 3.34866 0.686664 0.87047
C 2.39142 6.55254 5.36643
C 5.75491 5.93113 0.743257
H 3.01516 6.28802 4.53228
C 2.89313 7.51329 6.3496
C 6.08093 4.6756 1.36541
H 3.89641 7.90181 6.23713
H 0.421271 4.0204 0.76218
C 2.97488 10.5893 6.11279
C 12.1623 0.692057 1.73537
H 2.03323 10.102 5.90436
H 5.28737 2.0126 0.663687
C 4.75364 11.0468 7.5925
C 1.69837 1.82161 1.76751
H 5.25487 10.8826 8.53131
H 2.34496 2.58875 2.14863
C 0.783563 7.55293 7.37017
C 4.04506 4.68979 2.50622
H 0.0490715 8.21161 7.76507
H 3.47052 4.34931 3.34569
C 0.35335 6.38548 6.61428
C 3.60415 5.86031 1.78229
H 2.70586 6.3508 2.10557
C 1.11115 5.94201 5.51446
C 4.43154 6.48485 0.817086
C 5.2264 1.05227 4.65332
C 1.86178 11.005 9.92145
C 0.48168 4.86602 4.50089
C 3.66111 7.71491 10.1705
Ni 9.11424 9.42532 8.61235
Ni 12.1519 3.10116 3.45708
O 7.5027 3.88693 3.75223
O 10.587 8.40457 8.91519
O 10.661 2.10635 3.69841
O 7.64179 10.463 8.68338
O 11.7549 4.30908 4.66239
O 8.66516 8.36708 9.98887
O 6.46247 1.61046 4.83025
O 9.53352 10.6884 9.81738
N 9.8939 10.5661 7.14703
N 6.73278 1.63799 2.1751
N 8.35804 8.06474 7.24708
N 11.3717 4.25446 2.10914
C 9.49895 12.3325 5.50345
C 6.61702 0.650182 10.2125
H 8.74991 0.411247 5.04909
C 10.8429 0.259772 5.53595
C 7.81631 12.2028 0.34812
C 11.7031 12.1442 6.45342
C 8.30451 12.3591 1.65668
H 6.3968 12.1478 6.70728
H 9.12054 11.7385 2.00355
C 8.56149 6.59442 5.25321
C 11.8763 5.89714 0.439267
H 9.11815 6.36078 4.37735
C 9.04855 7.6736 6.11575
C 12.0615 4.60773 1.02055
H 9.99397 8.1443 5.88294
H 7.07187 4.25997 1.24701
C 9.07415 11.1774 6.23605
C 6.15265 1.43025 0.947087
H 8.06875 10.8106 6.10335
H 11.1749 0.510296 2.11846
C 11.2355 10.951 7.16265
C 7.87943 0.941244 2.4534
H 11.8921 10.4387 7.80927
H 8.50673 1.29178 3.23096
C 7.06643 7.54931 7.3645
C 10.2215 4.94625 2.39602
H 6.3186 8.14407 7.84465
H 9.64424 4.63795 3.23862
C 6.66592 6.30632 6.68798
C 9.87562 6.16075 1.70949
H 9.10861 6.78983 2.12
C 7.38469 5.84305 5.56921
C 10.6548 6.62799 0.633555
C 11.3638 1.47103 4.65942
C 8.29021 11.2042 9.62406
C 6.82985 4.57817 4.70901
C 9.92475 7.85623 9.97764
C 2.93367 11.6506 3.75717
N 2.12693 10.4771 3.41973
H 3.7617 11.7457 3.01967
H 2.3114 0.0420073 3.70456
H 2.2497 10.2327 2.41158
H 1.11689 10.6703 3.61378
C 11.5257 0.598868 9.61041
N 10.5576 1.64614 9.96109
H 11 12.3207 9.11971
H 12.1908 1.10056 8.92444
H 9.91031 1.2229 0.0511205
H 10.3292 2.22743 9.12136
C 11.5925 5.60492 6.91618
N 10.9142 5.8524 8.14957
H 11.8785 4.52566 6.93217
H 10.8857 5.80205 6.09553
H 10.719 4.92653 8.59949
H 9.96925 6.20975 7.93485
C 6.87965 6.69825 0.2092
N 7.59612 5.78349 9.82347
H 6.34477 7.50602 9.83269
H 7.33579 7.18864 1.0812
H 7.09636 5.11025 9.22127
H 8.23238 6.25406 9.17434
C 0.583995 0.27843 6.62839
N 1.50442 12.4698 7.68826
H 1.10935 0.125081 5.66827
H 0.384501 1.35831 6.79807
H 2.45772 0.128097 7.31809
H 1.56578 0.71935 8.38032
C 6.68419 1.21188 8.82634
N 7.13212 2.59072 8.87247
H 5.66807 1.17946 8.38301
H 7.41388 0.653163 8.21197
H 6.296 3.16926 9.10157
H 7.50597 2.87188 7.9366
C 5.4503 5.48627 7.07889
N 4.83075 5.7803 8.33625
H 4.69854 5.58511 6.27562
H 5.77387 4.42333 7.12958
H 4.689 4.87837 8.84847
H 3.86888 6.09612 8.14437
C 0.584139 6.57438 0.0421495
N 1.26783 5.62686 9.64988
H 0.144654 7.46828 9.73765
H 1.01433 6.92374 0.993302
H 0.775107 4.98013 8.99436
H 2.01408 6.09505 9.12508
148
Atoms. Timestep: 223
Ni 2.7968 9.28499 8.82325
Ni 6.00989 2.83758 3.58243
O 1.14566 4.15182 3.55451
O 4.30802 8.31136 9.11878
O 4.53138 1.78364 3.73366
O 1.28091 10.2643 8.93433
O 5.59362 3.99962 4.86403
O 2.39165 8.18834 10.1868
O 0.118023 1.9942 4.71472
O 3.15457 10.5814 10.0656
N 3.54499 10.4372 7.36929
N 0.356064 1.81124 2.11729
N 2.11693 7.93414 7.41996
N 5.26329 4.09659 2.26899
C 3.52045 11.5495 5.14313
C 0.025375 0.0518257 0.528954
C 4.66643 12.3391 5.493
C 1.44502 12.2939 0.383793
C 5.36531 11.8916 6.61418
C 2.27765 0.745601 0.990132
H 3.34866 0.686664 0.87047
C 2.39142 6.55254 5.36643
C 5.75491 5.93113 0.743257
H 3.01516 6.28802 4.53228
C 2.89313 7.51329 6.3496
C 6.08093 4.6756 1.36541
H 3.89641 7.90181 6.23713
H 0.421271 4.0204 0.76218
C 2.97488 10.5893 6.11279
C 12.1623 0.692057 1.73537
H 2.03323 10.102 5.90436
H 5.28737 2.0126 0.663687
C 4.75364 11.0468 7.5925
C 1.69837 1.82161 1.76751
H 5.25487 10.8826 8.53131
H 2.34496 2.58875 2.14863
C 0.783563 7.55293 7.37017
C 4.04506 4.68979 2.50622
H 0.0490715 8.21161 7.76507
H 3.47052 4.34931 3.34569
C 0.35335 6.38548 6.61428
C 3.60415 5.86031 1.78229
H 2.70586 6.3508 2.10557
C 1.11115 5.94201 5.51446
C 4.43154 6.48485 0.817086
C 5.2264 1.05227 4.65332
C 1.86178 11.005 9.92145
C 0.48168 4.86602 4.50089
C 3.66111 7.71491 10.1705
Ni 9.11424 9.42532 8.61235
Ni 12.1519 3.10116 3.45708
O 7.5027 3.88693 3.75223
O 10.587 8.40457 8.91519
O 10.661 2.10635 3.69841
O 7.64179 10.463 8.68338
O 11.7549 4.30908 4.66239
O 8.66516 8.36708 9.98887
O 6.46247 1.61046 4.83025
O 9.53352 10.6884 9.81738
N 9.8939 10.5661 7.14703
N 6.73278 1.63799 2.1751
N 8.35804 8.06474 7.24708
N 11.3717 4.25446 2.10914
C 9.49895 12.3325 5.50345
C 6.61702 0.650182 10.2125
H 8.74991 0.411247 5.04909
C 10.8429 0.259772 5.53595
C 7.81631 12.2028 0.34812
C 11.7031 12.1442 6.45342
C 8.30451 12.3591 1.65668
H 6.3968 12.1478 6.70728
H 9.12054 11.7385 2.00355
C 8.56149 6.59442 5.25321
C 11.8763 5.89714 0.439267
H 9.11815 6.36078 4.37735
C 9.04855 7.6736 6.11575
C 12.0615 4.60773 1.02055
H 9.99397 8.1443 5.88294
H 7.07187 4.25997 1.24701
C 9.07415 11.1774 6.23605
C 6.15265 1.43025 0.947087
H 8.06875 10.8106 6.10335
H 11.1749 0.510296 2.11846
C 11.2355 10.951 7.16265
C 7.87943 0.941244 2.4534
H 11.8921 10.4387 7.80927
H 8.50673 1.29178 3.23096
C 7.06643 7.54931 7.3645
C 10.2215 4.94625 2.39602
H 6.3186 8.14407 7.84465
H 9.64424 4.63795 3.23862
C 6.66592 6.30632 6.68798
C 9.87562 6.16075 1.70949
H 9.10861 6.78983 2.12
C 7.38469 5.84305 5.56921
C 10.6548 6.62799 0.633555
C 11.3638 1.47103 4.65942
C 8.29021 11.2042 9.62406
C 6.82985 4.57817 4.70901
C 9.92475 7.85623 9.97764
C 2.93367 11.6506 3.75717
N 2.12693 10.4771 3.41973
H 3.7617 11.7457 3.01967
H 2.3114 0.0420073 3.70456
H 2.2497 10.2327 2.41158
H 1.11689 10.6703 3.61378
C 11.5257 0.598868 9.61041
N 10.5576 1.64614 9.96109
H 11 12.3207 9.11971
H 12.1908 1.10056 8.92444
H 9.91031 1.2229 0.0511205
H 10.3292 2.22743 9.12136
C 11.5925 5.60492 6.91618
N 10.9142 5.8524 8.14957
H 11.8785 4.52566 6.93217
H 10.8857 5.80205 6.09553
H 10.719 4.92653 8.59949
H 9.96925 6.20975 7.93485
C 6.87965 6.69825 0.2092
N 7.59612 5.78349 9.82347
H 6.34477 7.50602 9.83269
H 7.33579 7.18864 1.0812
H 7.09636 5.11025 9.22127
H 8.23238 6.25406 9.17434
C 0.583995 0.27843 6.62839
N 1.50442 12.4698 7.68826
H 1.10935 0.125081 5.66827
H 0.384501 1.35831 6.79807
H 2.45772 0.128097 7.31809
H 1.56578 0.71935 8.38032
C 6.68419 1.21188 8.82634
N 7.13212 2.59072 8.87247
H 5.66807 1.17946 8.38301
H 7.41388 0.653163 8.21197
H 6.296 3.16926 9.10157
H 7.50597 2.87188 7.9366
C 5.4503 5.48627 7.07889
N 4.83075 5.7803 8.33625
H 4.69854 5.58511 6.27562
H 5.77387 4.42333 7.12958
H 4.689 4.87837 8.84847
H 3.86888 6.09612 8.14437
C 0.584139 6.57438 0.0421495
N 1.26783 5.62686 9.64988
H 0.144654 7.46828 9.73765
H 1.01433 6.92374 0.993302
H 0.775107 4.98013 8.99436
H 2.01408 6.09505 9.12508
