132

C	3.3537	12.1070	5.5358
C	0.3089	12.4803	0.4036
C	4.7044	0.0097	5.6546
C	1.6635	12.1441	0.4522
C	5.5447	11.8099	6.5019
C	2.5300	0.3801	1.2801
C	2.4468	6.5494	5.3426
C	5.5593	5.5069	0.2064
C	2.8934	7.5752	6.1822
C	6.0312	4.5990	1.1888
C	2.9080	11.0799	6.4144
C	12.3413	1.0577	1.1311
C	5.0203	10.7945	7.3230
C	1.9711	1.5216	1.9286
C	0.9922	7.3787	7.5102
C	4.2065	4.9507	2.5743
C	0.5100	6.2505	6.7822
C	3.7008	5.9281	1.7020
C	1.2503	5.8858	5.6213
C	4.3986	6.2513	0.5349
C	5.2435	1.1948	4.9420
C	1.9553	11.0125	9.9360
C	0.7772	4.8403	4.6927
C	3.6851	7.3577	9.9585
C	9.8151	12.1938	5.2613
C	6.8682	0.7748	0.1823
C	11.0080	0.3294	5.5678
C	8.0373	0.0486	0.5245
C	11.7000	12.5020	6.7616
C	8.6968	0.3652	1.7153
C	8.8928	6.6818	5.5770
C	12.1369	6.3037	0.4098
C	9.2818	7.7428	6.4426
C	0.0805	5.1898	1.1336
C	9.3092	11.2121	6.1214
C	6.3643	1.6727	1.1596
C	11.1587	11.4170	7.5146
C	8.1504	1.3202	2.5889
C	7.1445	7.9650	7.3125
C	10.4424	4.7807	1.9411
C	6.6730	6.9150	6.5051
C	9.9028	5.9250	1.2819
C	7.5521	6.2193	5.6742
C	10.7890	6.6685	0.4584
C	11.5258	1.3654	4.6496
C	8.3405	11.4917	9.9400
C	7.0586	5.0236	4.9516
C	10.0758	7.8170	9.9426
C	2.4142	0.0683	4.5578
C	3.9070	0.0157	1.5571
C	11.8782	5.5244	7.3183
C	6.0581	5.5856	9.2264
C	0.3477	0.6756	7.2997
C	5.9228	0.6785	9.1991
C	9.8730	6.1876	4.6431
C	8.5222	6.2939	1.5374
H	3.0553	6.2844	4.4851
H	0.1331	6.8831	10.1292
H	3.8347	8.0919	6.0161
H	1.1262	4.8936	1.1367
H	1.8640	10.7781	6.4003
H	5.4335	2.1910	0.9611
H	5.6397	10.2899	8.0553
H	2.6066	2.1517	2.5469
H	0.4042	7.7798	8.3318
H	3.6757	4.6494	3.4715
H	5.6292	6.6278	6.5799
H	2.7721	6.4307	1.9575
H	9.2496	12.4267	4.3670
H	11.8641	11.8916	10.1259
H	6.5990	12.0526	6.5859
H	9.6264	12.3995	1.9927
H	10.3152	8.0779	6.4466
H	6.9671	4.0814	1.0113
H	8.3667	10.7051	5.9313
H	11.2897	1.3291	1.1416
H	11.7136	11.0265	8.3633
H	8.6509	1.6166	3.5039
H	6.4953	8.4614	8.0246
H	9.7967	4.1719	2.5706
H	1.3994	12.2464	4.7326
H	2.4722	1.1593	4.4737
H	2.7396	12.2365	3.5694
H	4.3615	0.6697	2.2984
H	3.9771	11.4931	1.8864
H	4.4797	0.0042	0.6195
H	11.3276	6.1049	8.0567
H	12.2462	4.6032	7.8054
H	11.2336	5.1436	6.5185
H	6.8779	4.8728	9.1688
H	6.4480	6.6092	9.1100
H	5.3764	5.4667	8.3766
H	0.8477	0.1030	8.0775
H	0.0130	1.6347	7.7329
H	1.0330	0.9896	6.5047
H	5.1107	1.3977	9.1186
H	5.5109	12.1828	9.1116
H	6.6080	0.7624	8.3494
H	10.8713	6.5779	4.8213
H	9.8618	5.0913	4.6119
H	9.5544	6.4683	3.6287
H	8.0523	5.6389	2.2702
H	8.4495	7.3418	1.8609
H	7.9632	6.3023	0.5908
N	3.7126	10.4607	7.2850
N	0.6656	1.8207	1.8791
N	2.1603	7.9786	7.2427
N	5.3797	4.3332	2.3277
N	9.9834	10.8401	7.2313
N	6.9767	1.9254	2.3229
N	8.4373	8.3533	7.2825
N	11.7395	4.4476	1.8841
Ni	2.8899	9.2207	8.5918
Ni	6.1613	3.1177	3.6855
Ni	9.1903	9.6425	8.5906
Ni	12.4285	3.1175	3.1702
O	1.4998	4.3455	3.7499
O	4.4066	7.9497	9.0707
O	4.5648	1.9252	4.1197
O	1.2533	10.3742	9.0654
O	5.8597	4.5812	5.0976
O	2.4964	7.8289	10.0658
O	0.2010	1.8556	4.7388
O	3.1689	10.5916	10.0201
O	7.7593	4.3202	4.1279
O	10.8003	8.4397	9.0799
O	10.8484	1.8538	3.6699
O	7.6562	10.9064	9.0182
O	12.0938	4.3606	4.7255
O	8.8746	8.2716	10.0243
O	6.4493	1.6037	5.0989
O	9.5326	11.0339	10.0712
